*SPEF "ieee 1481-1999"
*DESIGN "top"
*DATE "05:57:23 Monday June 09, 2025"
*VENDOR "The OpenROAD Project"
*PROGRAM "OpenROAD"
*VERSION "v2.0-16235-gedf00dff9"
*DESIGN_FLOW "NAME_SCOPE LOCAL" "PIN_CAP NONE"
*DIVIDER /
*DELIMITER :
*BUS_DELIMITER []
*T_UNIT 1 NS
*C_UNIT 1 PF
*R_UNIT 1 OHM
*L_UNIT 1 HENRY

*NAME_MAP
*3 clk
*4 flag_gt_zero
*5 reset
*6 result[0]
*7 result[1]
*8 result[2]
*9 result[3]
*10 result[4]
*11 result[5]
*12 result[6]
*13 _00_
*14 _01_
*15 _02_
*16 _03_
*17 _04_
*18 _05_
*19 _06_
*20 _07_
*21 _08_
*22 clknet_0_clk
*23 clknet_1_0__leaf_clk
*24 clknet_1_1__leaf_clk
*25 fsm\.nstate\[0\]
*26 fsm\.nstate\[1\]
*27 fsm\.nstate\[2\]
*28 fsm\.pstate\[0\]
*29 fsm\.pstate\[1\]
*30 fsm\.pstate\[2\]
*31 net1
*32 net10
*33 net11
*34 net2
*35 net3
*36 net4
*37 net5
*38 net6
*39 net7
*40 net8
*41 net9
*42 FILLER_0_15
*43 FILLER_0_27
*44 FILLER_0_29
*45 FILLER_0_3
*46 FILLER_0_41
*47 FILLER_0_57
*48 FILLER_0_69
*49 FILLER_1_15
*50 FILLER_1_27
*51 FILLER_1_3
*52 FILLER_1_35
*53 FILLER_1_40
*54 FILLER_1_52
*55 FILLER_1_57
*56 FILLER_1_69
*57 FILLER_2_15
*58 FILLER_2_27
*59 FILLER_2_29
*60 FILLER_2_3
*61 FILLER_2_47
*62 FILLER_2_59
*63 FILLER_2_71
*64 FILLER_2_79
*65 FILLER_3_15
*66 FILLER_3_26
*67 FILLER_3_3
*68 FILLER_3_60
*69 FILLER_3_66
*70 FILLER_3_73
*71 FILLER_3_78
*72 FILLER_4_29
*73 FILLER_4_3
*74 FILLER_4_35
*75 FILLER_4_67
*76 FILLER_4_7
*77 FILLER_4_71
*78 FILLER_5_23
*79 FILLER_5_46
*80 FILLER_5_53
*81 FILLER_5_57
*82 FILLER_5_61
*83 FILLER_6_13
*84 FILLER_6_25
*85 FILLER_6_29
*86 FILLER_6_38
*87 FILLER_6_46
*88 FILLER_6_56
*89 FILLER_6_64
*90 FILLER_6_72
*91 FILLER_7_15
*92 FILLER_7_3
*93 FILLER_7_39
*94 FILLER_7_51
*95 FILLER_7_55
*96 FILLER_7_57
*97 FILLER_7_69
*98 FILLER_8_15
*99 FILLER_8_27
*100 FILLER_8_29
*101 FILLER_8_3
*102 FILLER_8_41
*103 FILLER_8_53
*104 FILLER_8_65
*105 FILLER_8_77
*106 FILLER_9_15
*107 FILLER_9_27
*108 FILLER_9_29
*109 FILLER_9_3
*110 FILLER_9_41
*111 FILLER_9_53
*112 FILLER_9_57
*113 FILLER_9_69
*114 PHY_EDGE_ROW_0_Left_10
*115 PHY_EDGE_ROW_0_Right_0
*116 PHY_EDGE_ROW_1_Left_11
*117 PHY_EDGE_ROW_1_Right_1
*118 PHY_EDGE_ROW_2_Left_12
*119 PHY_EDGE_ROW_2_Right_2
*120 PHY_EDGE_ROW_3_Left_13
*121 PHY_EDGE_ROW_3_Right_3
*122 PHY_EDGE_ROW_4_Left_14
*123 PHY_EDGE_ROW_4_Right_4
*124 PHY_EDGE_ROW_5_Left_15
*125 PHY_EDGE_ROW_5_Right_5
*126 PHY_EDGE_ROW_6_Left_16
*127 PHY_EDGE_ROW_6_Right_6
*128 PHY_EDGE_ROW_7_Left_17
*129 PHY_EDGE_ROW_7_Right_7
*130 PHY_EDGE_ROW_8_Left_18
*131 PHY_EDGE_ROW_8_Right_8
*132 PHY_EDGE_ROW_9_Left_19
*133 PHY_EDGE_ROW_9_Right_9
*134 TAP_TAPCELL_ROW_0_20
*135 TAP_TAPCELL_ROW_0_21
*136 TAP_TAPCELL_ROW_1_22
*137 TAP_TAPCELL_ROW_2_23
*138 TAP_TAPCELL_ROW_3_24
*139 TAP_TAPCELL_ROW_4_25
*140 TAP_TAPCELL_ROW_5_26
*141 TAP_TAPCELL_ROW_6_27
*142 TAP_TAPCELL_ROW_7_28
*143 TAP_TAPCELL_ROW_8_29
*144 TAP_TAPCELL_ROW_9_30
*145 TAP_TAPCELL_ROW_9_31
*146 _09_
*147 _10_
*148 _11_
*149 _12_
*150 _13_
*151 _14_
*152 _15_
*153 _16_
*154 _17_
*155 _18_
*156 _19_
*157 _20_
*158 _21_
*159 _22_
*160 _23_
*161 _24_
*162 _25_
*163 _26_
*164 _27_
*165 _28_
*166 _29_
*167 _30_
*168 _31_
*169 clkbuf_0_clk
*170 clkbuf_1_0__f_clk
*171 clkbuf_1_1__f_clk
*172 clkload0
*173 hold1
*174 hold2
*175 input1
*176 output2
*177 output3
*178 output4
*179 output5
*180 output6
*181 output7
*182 output8
*183 output9

*PORTS
clk I
flag_gt_zero O
reset I
result[0] O
result[1] O
result[2] O
result[3] O
result[4] O
result[5] O
result[6] O

*D_NET *3 0.00190771
*CONN
*P clk I
*I *169:A I *D sky130_fd_sc_hd__clkbuf_16
*CAP
1 clk 0.000846549
2 *169:A 0
3 *3:11 0.000846549
4 *3:11 *5:11 0.000214612
5 *3:11 *31:10 0
*RES
1 clk *3:11 30.7349 
2 *3:11 *169:A 23 
*END

*D_NET *4 0.000724678
*CONN
*P flag_gt_zero O
*I *176:X O *D sky130_fd_sc_hd__buf_2
*CAP
1 flag_gt_zero 0.000105161
2 *176:X 0.000105161
3 flag_gt_zero result[3] 0.000254198
4 flag_gt_zero result[5] 0.000237698
5 flag_gt_zero *9:12 2.24608e-05
*RES
1 *176:X flag_gt_zero 47.1648 
*END

*D_NET *5 0.000952312
*CONN
*P reset I
*I *175:A I *D sky130_fd_sc_hd__dlymetal6s2s_1
*CAP
1 reset 0.00036885
2 *175:A 0
3 *5:11 0.00036885
4 *5:11 *23:10 0
5 *3:11 *5:11 0.000214612
*RES
1 reset *5:11 27.6004 
2 *5:11 *175:A 23 
*END

*D_NET *6 0.00061643
*CONN
*P result[0] O
*I *177:X O *D sky130_fd_sc_hd__buf_2
*CAP
1 result[0] 0.000189692
2 *177:X 0.000189692
3 result[0] result[3] 0.000237046
4 result[0] result[4] 0
5 result[0] *38:8 0
*RES
1 *177:X result[0] 47.1648 
*END

*D_NET *7 0.000620519
*CONN
*P result[1] O
*I *178:X O *D sky130_fd_sc_hd__buf_2
*CAP
1 result[1] 0.000176789
2 *178:X 0.000176789
3 result[1] result[5] 0.000254198
4 result[1] *36:10 1.27424e-05
*RES
1 *178:X result[1] 47.1648 
*END

*D_NET *8 0.00102305
*CONN
*P result[2] O
*I *179:X O *D sky130_fd_sc_hd__buf_2
*CAP
1 result[2] 0.000352655
2 *179:X 0.000352655
3 result[2] result[6] 0.00021925
4 result[2] *167:A 9.84851e-05
*RES
1 *179:X result[2] 47.0936 
*END

*D_NET *9 0.0012983
*CONN
*P result[3] O
*I *180:X O *D sky130_fd_sc_hd__buf_2
*CAP
1 result[3] 0.000108946
2 *180:X 0.000196143
3 *9:12 0.00030509
4 result[3] result[5] 1.38508e-05
5 *9:12 *176:A 4.2573e-05
6 *9:12 *34:17 5.50049e-05
7 *9:12 *34:23 6.29881e-05
8 flag_gt_zero result[3] 0.000254198
9 flag_gt_zero *9:12 2.24608e-05
10 result[0] result[3] 0.000237046
*RES
1 *180:X *9:12 49.3039 
2 *9:12 result[3] 0.9296 
*END

*D_NET *10 0.000682231
*CONN
*P result[4] O
*I *181:X O *D sky130_fd_sc_hd__buf_2
*CAP
1 result[4] 0.000319446
2 *181:X 0.000319446
3 result[4] *39:8 4.334e-05
4 result[0] result[4] 0
*RES
1 *181:X result[4] 48.5734 
*END

*D_NET *11 0.00116565
*CONN
*P result[5] O
*I *182:X O *D sky130_fd_sc_hd__buf_2
*CAP
1 result[5] 0.000278534
2 *182:X 0.000278534
3 result[5] *36:10 4.08641e-05
4 result[5] *40:10 6.19668e-05
5 flag_gt_zero result[5] 0.000237698
6 result[1] result[5] 0.000254198
7 result[3] result[5] 1.38508e-05
*RES
1 *182:X result[5] 48.9168 
*END

*D_NET *12 0.000895871
*CONN
*P result[6] O
*I *183:X O *D sky130_fd_sc_hd__buf_2
*CAP
1 result[6] 0.00033831
2 *183:X 0.00033831
3 result[2] result[6] 0.00021925
*RES
1 *183:X result[6] 46.6171 
*END

*D_NET *13 0.000389713
*CONN
*I *163:RESET_B I *D sky130_fd_sc_hd__dfrtp_1
*I *160:Y O *D sky130_fd_sc_hd__inv_2
*CAP
1 *163:RESET_B 0
2 *160:Y 0.000144907
3 *13:10 0.000144907
4 *13:10 *161:A 4.6318e-06
5 *13:10 *31:10 9.52677e-05
*RES
1 *160:Y *13:10 41.2314 
2 *13:10 *163:RESET_B 15 
*END

*D_NET *14 0.00103387
*CONN
*I *164:RESET_B I *D sky130_fd_sc_hd__dfrtp_1
*I *161:Y O *D sky130_fd_sc_hd__inv_2
*CAP
1 *164:RESET_B 0
2 *161:Y 0.000357165
3 *14:10 0.000357165
4 *14:10 *151:A1 0.000125234
5 *14:10 *25:12 0.000194309
*RES
1 *161:Y *14:10 44.09 
2 *14:10 *164:RESET_B 15 
*END

*D_NET *15 0.000196495
*CONN
*I *165:RESET_B I *D sky130_fd_sc_hd__dfrtp_1
*I *162:Y O *D sky130_fd_sc_hd__inv_2
*CAP
1 *165:RESET_B 0
2 *162:Y 9.82477e-05
3 *15:8 9.82477e-05
*RES
1 *162:Y *15:8 39.5536 
2 *15:8 *165:RESET_B 15 
*END

*D_NET *16 0.00169769
*CONN
*I *152:A I *D sky130_fd_sc_hd__or2_1
*I *149:A I *D sky130_fd_sc_hd__or2_1
*I *159:A I *D sky130_fd_sc_hd__nor2_1
*I *146:Y O *D sky130_fd_sc_hd__inv_2
*CAP
1 *152:A 0.000103841
2 *149:A 0
3 *159:A 0
4 *146:Y 0.000305496
5 *16:19 0.000299295
6 *16:10 0.000195454
7 *16:8 0.000305496
8 *152:A *152:B 9.84851e-05
9 *152:A *177:A 2.93845e-05
10 *152:A *18:10 5.67058e-05
11 *152:A *35:14 3.75074e-05
12 *16:8 *152:B 0
13 *16:8 *21:10 0
14 *16:8 *28:39 0
15 *16:19 *159:B 0.000187129
16 *16:19 *27:6 2.93845e-05
17 *16:19 *35:14 4.95081e-05
*RES
1 *146:Y *16:8 43.075 
2 *16:8 *16:10 15 
3 *16:10 *159:A 23 
4 *16:10 *16:19 4.45357 
5 *16:19 *149:A 23 
6 *16:19 *152:A 25.5271 
*END

*D_NET *17 0.000171696
*CONN
*I *148:A I *D sky130_fd_sc_hd__buf_1
*I *147:Y O *D sky130_fd_sc_hd__nand2b_1
*CAP
1 *148:A 5.83458e-05
2 *147:Y 5.83458e-05
3 *148:A *30:29 5.50049e-05
*RES
1 *147:Y *148:A 47.0979 
*END

*D_NET *18 0.000379873
*CONN
*I *150:A I *D sky130_fd_sc_hd__clkbuf_1
*I *149:X O *D sky130_fd_sc_hd__or2_1
*CAP
1 *150:A 0
2 *149:X 0.000161584
3 *18:10 0.000161584
4 *18:10 *40:10 0
5 *152:A *18:10 5.67058e-05
*RES
1 *149:X *18:10 40.5271 
2 *18:10 *150:A 38 
*END

*D_NET *19 0.000482534
*CONN
*I *153:A I *D sky130_fd_sc_hd__clkbuf_1
*I *152:X O *D sky130_fd_sc_hd__or2_1
*CAP
1 *153:A 8.93774e-05
2 *152:X 9.36799e-05
3 *19:8 0.000183057
4 *19:8 *152:B 0
5 *19:8 *35:8 2.79004e-05
6 *19:8 *38:8 8.85189e-05
*RES
1 *152:X *19:8 40.2579 
2 *19:8 *153:A 39.5743 
*END

*D_NET *20 0.000216456
*CONN
*I *155:A I *D sky130_fd_sc_hd__clkbuf_1
*I *154:X O *D sky130_fd_sc_hd__or2b_1
*CAP
1 *155:A 0.000108228
2 *154:X 0.000108228
3 *155:A *154:B_N 0
*RES
1 *154:X *155:A 48.0714 
*END

*D_NET *21 0.00104474
*CONN
*I *158:B I *D sky130_fd_sc_hd__nor2_1
*I *157:Y O *D sky130_fd_sc_hd__xnor2_1
*CAP
1 *158:B 0
2 *157:Y 0.000358572
3 *21:10 0.000358572
4 *21:10 *28:22 0.000139352
5 *21:10 *32:10 6.07611e-06
6 *21:10 *32:18 0.000182168
7 *16:8 *21:10 0
*RES
1 *157:Y *21:10 44.6493 
2 *21:10 *158:B 38 
*END

*D_NET *22 0.00252278
*CONN
*I *170:A I *D sky130_fd_sc_hd__clkbuf_16
*I *171:A I *D sky130_fd_sc_hd__clkbuf_16
*I *169:X O *D sky130_fd_sc_hd__clkbuf_16
*CAP
1 *170:A 0.000251565
2 *171:A 0.000383475
3 *169:X 0.000310968
4 *22:10 0.000946008
5 *170:A *165:CLK 0.000102093
6 *170:A *27:6 7.88828e-05
7 *171:A *172:A 0.000124668
8 *171:A *25:16 0.000318946
9 *171:A *28:10 6.17437e-06
10 *171:A *31:10 0
11 *22:10 *31:10 0
*RES
1 *169:X *22:10 42.9921 
2 *22:10 *171:A 46.5757 
3 *22:10 *170:A 42.9093 
*END

*D_NET *23 0.00131859
*CONN
*I *165:CLK I *D sky130_fd_sc_hd__dfrtp_1
*I *163:CLK I *D sky130_fd_sc_hd__dfrtp_1
*I *170:X O *D sky130_fd_sc_hd__clkbuf_16
*CAP
1 *165:CLK 0.000476852
2 *163:CLK 0
3 *170:X 0
4 *23:10 0.000131396
5 *23:4 0.000608248
6 *170:A *165:CLK 0.000102093
7 *5:11 *23:10 0
*RES
1 *170:X *23:4 23 
2 *23:4 *23:10 32.2579 
3 *23:10 *163:CLK 23 
4 *23:4 *165:CLK 32.2179 
*END

*D_NET *24 0.00215253
*CONN
*I *164:CLK I *D sky130_fd_sc_hd__dfrtp_1
*I *172:A I *D sky130_fd_sc_hd__clkbuf_4
*I *171:X O *D sky130_fd_sc_hd__clkbuf_16
*CAP
1 *164:CLK 0
2 *172:A 0.000417533
3 *171:X 0.000274265
4 *24:21 0.000100679
5 *24:6 0.000792477
6 *172:A *30:23 5.12254e-05
7 *24:6 *30:23 0.000189272
8 *24:21 *151:B1_N 6.68587e-05
9 *24:21 *26:10 0.000135547
10 *171:A *172:A 0.000124668
*RES
1 *171:X *24:6 26.9564 
2 *24:6 *172:A 28.8829 
3 *24:6 *24:21 31.9057 
4 *24:21 *164:CLK 23 
*END

*D_NET *25 0.0029175
*CONN
*I *163:D I *D sky130_fd_sc_hd__dfrtp_1
*I *156:Y O *D sky130_fd_sc_hd__nor2_1
*CAP
1 *163:D 0
2 *156:Y 0.000449272
3 *25:16 0.000665403
4 *25:12 0.00111467
5 *25:12 *151:B1_N 0
6 *25:12 *29:12 0
7 *25:12 *33:10 8.85189e-05
8 *25:16 *28:10 8.638e-05
9 *171:A *25:16 0.000318946
10 *14:10 *25:12 0.000194309
*RES
1 *156:Y *25:12 46.6586 
2 *25:12 *25:16 28.485 
3 *25:16 *163:D 23 
*END

*D_NET *26 0.00155299
*CONN
*I *164:D I *D sky130_fd_sc_hd__dfrtp_1
*I *158:Y O *D sky130_fd_sc_hd__nor2_1
*CAP
1 *164:D 6.01221e-05
2 *158:Y 0.000297938
3 *26:10 0.00035806
4 *164:D *28:22 7.57587e-05
5 *164:D *29:21 0.000102052
6 *26:10 *151:B1_N 2.47304e-05
7 *26:10 *173:A 2.76611e-06
8 *26:10 *27:6 7.15126e-05
9 *26:10 *30:10 5.36457e-05
10 *26:10 *32:18 0.000370859
11 *24:21 *26:10 0.000135547
*RES
1 *158:Y *26:10 44.6493 
2 *26:10 *164:D 40.0507 
*END

*D_NET *27 0.00182752
*CONN
*I *165:D I *D sky130_fd_sc_hd__dfrtp_1
*I *159:Y O *D sky130_fd_sc_hd__nor2_1
*CAP
1 *165:D 0
2 *159:Y 0.000809201
3 *27:6 0.000809201
4 *27:6 *30:8 2.93335e-05
5 *170:A *27:6 7.88828e-05
6 *16:19 *27:6 2.93845e-05
7 *26:10 *27:6 7.15126e-05
*RES
1 *159:Y *27:6 37.4379 
2 *27:6 *165:D 23 
*END

*D_NET *28 0.00483663
*CONN
*I *151:A1 I *D sky130_fd_sc_hd__o21bai_1
*I *174:A I *D sky130_fd_sc_hd__dlygate4sd3_1
*I *154:B_N I *D sky130_fd_sc_hd__or2b_1
*I *147:B I *D sky130_fd_sc_hd__nand2b_1
*I *157:A I *D sky130_fd_sc_hd__xnor2_1
*I *163:Q O *D sky130_fd_sc_hd__dfrtp_1
*CAP
1 *151:A1 0.000207147
2 *174:A 0
3 *154:B_N 0.000148454
4 *147:B 0
5 *157:A 2.00578e-05
6 *163:Q 0.000234036
7 *28:61 0.000448131
8 *28:39 0.000165224
9 *28:31 0.000569038
10 *28:22 0.00108269
11 *28:10 0.00128229
12 *151:A1 *33:10 1.83408e-05
13 *154:B_N *154:A 2.45549e-06
14 *157:A *146:A 0
15 *28:10 *31:10 0
16 *28:22 *146:A 3.22879e-05
17 *28:22 *29:6 4.38668e-05
18 *28:22 *29:21 3.78156e-05
19 *28:22 *31:10 0
20 *28:31 *146:A 9.90162e-05
21 *28:39 *154:A 0
22 *28:39 *30:29 1.28818e-05
23 *28:61 *161:A 0
24 *28:61 *31:10 0
25 *155:A *154:B_N 0
26 *164:D *28:22 7.57587e-05
27 *171:A *28:10 6.17437e-06
28 *14:10 *151:A1 0.000125234
29 *16:8 *28:39 0
30 *21:10 *28:22 0.000139352
31 *25:16 *28:10 8.638e-05
*RES
1 *163:Q *28:10 41.5525 
2 *28:10 *28:22 27.2111 
3 *28:22 *157:A 23.4971 
4 *28:22 *28:31 4.90929 
5 *28:31 *28:39 32.408 
6 *28:39 *147:B 23 
7 *28:31 *154:B_N 25.5479 
8 *28:10 *28:61 19.6089 
9 *28:61 *174:A 23 
10 *28:61 *151:A1 27.4536 
*END

*D_NET *29 0.00264139
*CONN
*I *146:A I *D sky130_fd_sc_hd__inv_2
*I *157:B I *D sky130_fd_sc_hd__xnor2_1
*I *151:A2 I *D sky130_fd_sc_hd__o21bai_1
*I *164:Q O *D sky130_fd_sc_hd__dfrtp_1
*CAP
1 *146:A 0.000108166
2 *157:B 0
3 *151:A2 0
4 *164:Q 0.000565051
5 *29:21 0.000455685
6 *29:12 0.000132195
7 *29:6 0.00104477
8 *29:12 *151:B1_N 2.04854e-05
9 *157:A *146:A 0
10 *164:D *29:21 0.000102052
11 *25:12 *29:12 0
12 *28:22 *146:A 3.22879e-05
13 *28:22 *29:6 4.38668e-05
14 *28:22 *29:21 3.78156e-05
15 *28:31 *146:A 9.90162e-05
*RES
1 *164:Q *29:6 29.815 
2 *29:6 *29:12 32.2579 
3 *29:12 *151:A2 23 
4 *29:6 *29:21 5.28214 
5 *29:21 *157:B 23 
6 *29:21 *146:A 26.0243 
*END

*D_NET *30 0.00455807
*CONN
*I *173:A I *D sky130_fd_sc_hd__dlygate4sd3_1
*I *147:A_N I *D sky130_fd_sc_hd__nand2b_1
*I *152:B I *D sky130_fd_sc_hd__or2_1
*I *154:A I *D sky130_fd_sc_hd__or2b_1
*I *151:B1_N I *D sky130_fd_sc_hd__o21bai_1
*I *165:Q O *D sky130_fd_sc_hd__dfrtp_1
*CAP
1 *173:A 0.000409976
2 *147:A_N 0
3 *152:B 0.000206527
4 *154:A 0.000270649
5 *151:B1_N 0.000247248
6 *165:Q 4.66065e-05
7 *30:29 0.000651927
8 *30:23 0.000571671
9 *30:10 0.000752416
10 *30:8 0.000564831
11 *151:B1_N *32:18 0
12 *152:B *35:8 4.58924e-05
13 *152:B *35:14 9.84851e-05
14 *154:A *39:8 0
15 *173:A *32:10 8.4701e-05
16 *173:A *32:18 0
17 *148:A *30:29 5.50049e-05
18 *152:A *152:B 9.84851e-05
19 *154:B_N *154:A 2.45549e-06
20 *172:A *30:23 5.12254e-05
21 *16:8 *152:B 0
22 *19:8 *152:B 0
23 *24:6 *30:23 0.000189272
24 *24:21 *151:B1_N 6.68587e-05
25 *25:12 *151:B1_N 0
26 *26:10 *151:B1_N 2.47304e-05
27 *26:10 *173:A 2.76611e-06
28 *26:10 *30:10 5.36457e-05
29 *27:6 *30:8 2.93335e-05
30 *28:39 *154:A 0
31 *28:39 *30:29 1.28818e-05
32 *29:12 *151:B1_N 2.04854e-05
*RES
1 *165:Q *30:8 38.6214 
2 *30:8 *30:10 2.25786 
3 *30:10 *151:B1_N 42.7229 
4 *30:10 *30:23 22.7679 
5 *30:23 *30:29 18.0243 
6 *30:29 *154:A 41.9357 
7 *30:29 *152:B 42.7643 
8 *30:23 *147:A_N 23 
9 *30:8 *173:A 45.9129 
*END

*D_NET *31 0.00316954
*CONN
*I *162:A I *D sky130_fd_sc_hd__inv_2
*I *160:A I *D sky130_fd_sc_hd__inv_2
*I *161:A I *D sky130_fd_sc_hd__inv_2
*I *175:X O *D sky130_fd_sc_hd__dlymetal6s2s_1
*CAP
1 *162:A 0.000280489
2 *160:A 0
3 *161:A 0.000313569
4 *175:X 0.00051786
5 *31:10 0.00073647
6 *31:6 0.00122125
7 *171:A *31:10 0
8 *3:11 *31:10 0
9 *13:10 *161:A 4.6318e-06
10 *13:10 *31:10 9.52677e-05
11 *22:10 *31:10 0
12 *28:10 *31:10 0
13 *28:22 *31:10 0
14 *28:61 *161:A 0
15 *28:61 *31:10 0
*RES
1 *175:X *31:6 32.1971 
2 *31:6 *31:10 23.2443 
3 *31:10 *161:A 43.8414 
4 *31:10 *160:A 38 
5 *31:6 *162:A 27.9093 
*END

*D_NET *32 0.00290382
*CONN
*I *158:A I *D sky130_fd_sc_hd__nor2_1
*I *156:B I *D sky130_fd_sc_hd__nor2_1
*I *173:X O *D sky130_fd_sc_hd__dlygate4sd3_1
*CAP
1 *158:A 0
2 *156:B 0
3 *173:X 0.00017617
4 *32:18 0.000927265
5 *32:10 0.00110344
6 *32:18 *41:10 5.31444e-05
7 *151:B1_N *32:18 0
8 *173:A *32:10 8.4701e-05
9 *173:A *32:18 0
10 *21:10 *32:10 6.07611e-06
11 *21:10 *32:18 0.000182168
12 *26:10 *32:18 0.000370859
*RES
1 *173:X *32:10 41.0036 
2 *32:10 *32:18 32.8971 
3 *32:18 *156:B 23 
4 *32:10 *158:A 38 
*END

*D_NET *33 0.000415593
*CONN
*I *156:A I *D sky130_fd_sc_hd__nor2_1
*I *174:X O *D sky130_fd_sc_hd__dlygate4sd3_1
*CAP
1 *156:A 0
2 *174:X 0.000154367
3 *33:10 0.000154367
4 *33:10 *41:10 0
5 *151:A1 *33:10 1.83408e-05
6 *25:12 *33:10 8.85189e-05
*RES
1 *174:X *33:10 40.5271 
2 *33:10 *156:A 38 
*END

*D_NET *34 0.00136929
*CONN
*I *176:A I *D sky130_fd_sc_hd__buf_2
*I *168:A I *D sky130_fd_sc_hd__clkbuf_1
*I *166:A I *D sky130_fd_sc_hd__clkbuf_1
*I *150:X O *D sky130_fd_sc_hd__clkbuf_1
*CAP
1 *176:A 3.82718e-05
2 *168:A 0
3 *166:A 0.000232616
4 *150:X 0
5 *34:23 9.11345e-05
6 *34:17 0.000267626
7 *34:4 0.000370836
8 *166:A *36:10 1.32289e-05
9 *176:A *36:10 1.39431e-05
10 *34:17 *180:A 5.3304e-05
11 *34:17 *36:10 4.61435e-05
12 *34:23 *38:8 8.16253e-05
13 *9:12 *176:A 4.2573e-05
14 *9:12 *34:17 5.50049e-05
15 *9:12 *34:23 6.29881e-05
*RES
1 *150:X *34:4 23 
2 *34:4 *166:A 26.3764 
3 *34:4 *34:17 3.02429 
4 *34:17 *34:23 32.2579 
5 *34:23 *168:A 23 
6 *34:17 *176:A 24.1186 
*END

*D_NET *35 0.00151044
*CONN
*I *177:A I *D sky130_fd_sc_hd__buf_2
*I *149:B I *D sky130_fd_sc_hd__or2_1
*I *159:B I *D sky130_fd_sc_hd__nor2_1
*I *148:X O *D sky130_fd_sc_hd__buf_1
*CAP
1 *177:A 0.000216053
2 *149:B 0
3 *159:B 5.95176e-05
4 *148:X 7.85551e-05
5 *35:14 0.000212975
6 *35:10 0.000369511
7 *35:8 7.85551e-05
8 *177:A *40:10 1.94693e-05
9 *35:8 *38:8 0
10 *152:A *177:A 2.93845e-05
11 *152:A *35:14 3.75074e-05
12 *152:B *35:8 4.58924e-05
13 *152:B *35:14 9.84851e-05
14 *16:19 *159:B 0.000187129
15 *16:19 *35:14 4.95081e-05
16 *19:8 *35:8 2.79004e-05
*RES
1 *148:X *35:8 39.9057 
2 *35:8 *35:10 15 
3 *35:10 *35:14 3.50071 
4 *35:14 *159:B 25.0507 
5 *35:14 *149:B 23 
6 *35:10 *177:A 26.9771 
*END

*D_NET *36 0.0010408
*CONN
*I *178:A I *D sky130_fd_sc_hd__buf_2
*I *166:X O *D sky130_fd_sc_hd__clkbuf_1
*CAP
1 *178:A 0
2 *166:X 0.000448985
3 *36:10 0.000448985
4 *36:10 *180:A 1.59094e-05
5 *36:10 *40:10 0
6 result[1] *36:10 1.27424e-05
7 result[5] *36:10 4.08641e-05
8 *166:A *36:10 1.32289e-05
9 *176:A *36:10 1.39431e-05
10 *34:17 *36:10 4.61435e-05
*RES
1 *166:X *36:10 44.6907 
2 *36:10 *178:A 38 
*END

*D_NET *37 0.000177021
*CONN
*I *179:A I *D sky130_fd_sc_hd__buf_2
*I *167:X O *D sky130_fd_sc_hd__clkbuf_1
*CAP
1 *179:A 5.7204e-05
2 *167:X 5.7204e-05
3 *179:A *167:A 6.26126e-05
*RES
1 *167:X *179:A 47.4707 
*END

*D_NET *38 0.000858996
*CONN
*I *180:A I *D sky130_fd_sc_hd__buf_2
*I *153:X O *D sky130_fd_sc_hd__clkbuf_1
*CAP
1 *180:A 3.00574e-05
2 *153:X 0.000211518
3 *38:8 0.000241576
4 *38:8 *40:10 0.000136486
5 result[0] *38:8 0
6 *19:8 *38:8 8.85189e-05
7 *34:17 *180:A 5.3304e-05
8 *34:23 *38:8 8.16253e-05
9 *35:8 *38:8 0
10 *36:10 *180:A 1.59094e-05
*RES
1 *153:X *38:8 42.7229 
2 *38:8 *180:A 38.6214 
*END

*D_NET *39 0.00024816
*CONN
*I *181:A I *D sky130_fd_sc_hd__buf_2
*I *155:X O *D sky130_fd_sc_hd__clkbuf_1
*CAP
1 *181:A 0
2 *155:X 0.00010241
3 *39:8 0.00010241
4 result[4] *39:8 4.334e-05
5 *154:A *39:8 0
*RES
1 *155:X *39:8 39.9057 
2 *39:8 *181:A 38 
*END

*D_NET *40 0.000810065
*CONN
*I *182:A I *D sky130_fd_sc_hd__buf_2
*I *168:X O *D sky130_fd_sc_hd__clkbuf_1
*CAP
1 *182:A 0
2 *168:X 0.000296071
3 *40:10 0.000296071
4 result[5] *40:10 6.19668e-05
5 *177:A *40:10 1.94693e-05
6 *18:10 *40:10 0
7 *36:10 *40:10 0
8 *38:8 *40:10 0.000136486
*RES
1 *168:X *40:10 43.6964 
2 *40:10 *182:A 38 
*END

*D_NET *41 0.00148054
*CONN
*I *183:A I *D sky130_fd_sc_hd__buf_2
*I *167:A I *D sky130_fd_sc_hd__clkbuf_1
*I *151:Y O *D sky130_fd_sc_hd__o21bai_1
*CAP
1 *183:A 0
2 *167:A 0.000199947
3 *151:Y 0.000433202
4 *41:12 0.000199947
5 *41:10 0.000433202
6 result[2] *167:A 9.84851e-05
7 *179:A *167:A 6.26126e-05
8 *32:18 *41:10 5.31444e-05
9 *33:10 *41:10 0
*RES
1 *151:Y *41:10 45.1257 
2 *41:10 *41:12 15 
3 *41:12 *167:A 27.4743 
4 *41:12 *183:A 23 
*END
