*SPEF "ieee 1481-1999"
*DESIGN "ALU_7bit"
*DATE "17:25:40 Sunday June 08, 2025"
*VENDOR "The OpenROAD Project"
*PROGRAM "OpenROAD"
*VERSION "v2.0-16235-gedf00dff9"
*DESIGN_FLOW "NAME_SCOPE LOCAL" "PIN_CAP NONE"
*DIVIDER /
*DELIMITER :
*BUS_DELIMITER []
*T_UNIT 1 NS
*C_UNIT 1 PF
*R_UNIT 1 OHM
*L_UNIT 1 HENRY

*NAME_MAP
*1 A[0]
*2 A[1]
*3 A[2]
*4 A[3]
*5 A[4]
*6 A[5]
*7 A[6]
*8 B[0]
*9 B[1]
*10 B[2]
*11 B[3]
*12 B[4]
*13 B[5]
*14 B[6]
*15 OP
*18 ZF
*19 result[0]
*20 result[1]
*21 result[2]
*22 result[3]
*23 result[4]
*24 result[5]
*25 result[6]
*26 _00_
*27 _01_
*28 _02_
*29 _03_
*30 _04_
*31 _05_
*32 _06_
*33 _07_
*34 _08_
*35 _09_
*36 _10_
*37 _11_
*38 _12_
*39 _13_
*40 _14_
*41 _15_
*42 _16_
*43 _17_
*44 _18_
*45 _19_
*46 _20_
*47 _21_
*48 _22_
*49 _23_
*50 _24_
*51 _25_
*52 _26_
*53 _27_
*54 _28_
*55 _29_
*56 _30_
*57 _31_
*58 _32_
*59 _33_
*60 _34_
*61 _35_
*62 _36_
*63 _37_
*64 net1
*65 net10
*66 net11
*67 net12
*68 net13
*69 net14
*70 net15
*71 net16
*72 net17
*73 net18
*74 net19
*75 net2
*76 net20
*77 net21
*78 net3
*79 net4
*80 net5
*81 net6
*82 net7
*83 net8
*84 net9
*85 FILLER_0_15
*86 FILLER_0_27
*87 FILLER_0_29
*88 FILLER_0_3
*89 FILLER_0_41
*90 FILLER_0_53
*91 FILLER_0_57
*92 FILLER_0_69
*93 FILLER_1_18
*94 FILLER_1_30
*95 FILLER_1_42
*96 FILLER_1_54
*97 FILLER_1_57
*98 FILLER_1_6
*99 FILLER_1_69
*100 FILLER_2_23
*101 FILLER_2_27
*102 FILLER_2_29
*103 FILLER_2_3
*104 FILLER_2_33
*105 FILLER_2_49
*106 FILLER_2_55
*107 FILLER_2_62
*108 FILLER_2_74
*109 FILLER_2_9
*110 FILLER_3_28
*111 FILLER_3_46
*112 FILLER_4_19
*113 FILLER_4_29
*114 FILLER_4_48
*115 FILLER_4_54
*116 FILLER_4_80
*117 FILLER_5_14
*118 FILLER_5_22
*119 FILLER_5_33
*120 FILLER_5_57
*121 FILLER_5_67
*122 FILLER_6_17
*123 FILLER_6_36
*124 FILLER_6_47
*125 FILLER_6_54
*126 FILLER_6_70
*127 FILLER_6_8
*128 FILLER_7_11
*129 FILLER_7_20
*130 FILLER_7_32
*131 FILLER_7_36
*132 FILLER_7_47
*133 FILLER_7_55
*134 FILLER_7_57
*135 FILLER_7_71
*136 FILLER_8_18
*137 FILLER_8_29
*138 FILLER_8_35
*139 FILLER_8_45
*140 FILLER_8_53
*141 FILLER_8_6
*142 FILLER_8_62
*143 FILLER_8_74
*144 FILLER_8_80
*145 FILLER_9_15
*146 FILLER_9_27
*147 FILLER_9_29
*148 FILLER_9_3
*149 FILLER_9_33
*150 FILLER_9_44
*151 FILLER_9_57
*152 FILLER_9_69
*153 PHY_EDGE_ROW_0_Left_10
*154 PHY_EDGE_ROW_0_Right_0
*155 PHY_EDGE_ROW_1_Left_11
*156 PHY_EDGE_ROW_1_Right_1
*157 PHY_EDGE_ROW_2_Left_12
*158 PHY_EDGE_ROW_2_Right_2
*159 PHY_EDGE_ROW_3_Left_13
*160 PHY_EDGE_ROW_3_Right_3
*161 PHY_EDGE_ROW_4_Left_14
*162 PHY_EDGE_ROW_4_Right_4
*163 PHY_EDGE_ROW_5_Left_15
*164 PHY_EDGE_ROW_5_Right_5
*165 PHY_EDGE_ROW_6_Left_16
*166 PHY_EDGE_ROW_6_Right_6
*167 PHY_EDGE_ROW_7_Left_17
*168 PHY_EDGE_ROW_7_Right_7
*169 PHY_EDGE_ROW_8_Left_18
*170 PHY_EDGE_ROW_8_Right_8
*171 PHY_EDGE_ROW_9_Left_19
*172 PHY_EDGE_ROW_9_Right_9
*173 TAP_TAPCELL_ROW_0_20
*174 TAP_TAPCELL_ROW_0_21
*175 TAP_TAPCELL_ROW_1_22
*176 TAP_TAPCELL_ROW_2_23
*177 TAP_TAPCELL_ROW_3_24
*178 TAP_TAPCELL_ROW_4_25
*179 TAP_TAPCELL_ROW_5_26
*180 TAP_TAPCELL_ROW_6_27
*181 TAP_TAPCELL_ROW_7_28
*182 TAP_TAPCELL_ROW_8_29
*183 TAP_TAPCELL_ROW_9_30
*184 TAP_TAPCELL_ROW_9_31
*185 _38_
*186 _39_
*187 _40_
*188 _41_
*189 _42_
*190 _43_
*191 _44_
*192 _45_
*193 _46_
*194 _47_
*195 _48_
*196 _49_
*197 _50_
*198 _51_
*199 _52_
*200 _53_
*201 _54_
*202 _55_
*203 _56_
*204 _57_
*205 _58_
*206 _59_
*207 _60_
*208 _61_
*209 _62_
*210 _63_
*211 _64_
*212 _65_
*213 _66_
*214 _67_
*215 _68_
*216 _69_
*217 _70_
*218 _71_
*219 _72_
*220 _73_
*221 _74_
*222 _75_
*223 _76_
*224 _77_
*225 _78_
*226 _79_
*227 _80_
*228 _81_
*229 _82_
*230 _83_
*231 fanout20
*232 fanout21
*233 input1
*234 input10
*235 input11
*236 input2
*237 input3
*238 input4
*239 input5
*240 input6
*241 input7
*242 input8
*243 input9
*244 output12
*245 output13
*246 output14
*247 output15
*248 output16
*249 output17
*250 output18
*251 output19

*PORTS
A[0] I
A[1] I
A[2] I
A[3] I
A[4] I
A[5] I
A[6] I
B[0] I
B[1] I
B[2] I
B[3] I
B[4] I
B[5] I
B[6] I
OP I
ZF O
result[0] O
result[1] O
result[2] O
result[3] O
result[4] O
result[5] O
result[6] O

*D_NET *1 0.00101516
*CONN
*P A[0] I
*I *233:A I *D sky130_fd_sc_hd__clkbuf_1
*CAP
1 A[0] 0.000507582
2 *233:A 0.000507582
3 *233:A result[6] 0
*RES
1 A[0] *233:A 23.8714 
*END

*D_NET *2 0.00139625
*CONN
*P A[1] I
*I *236:A I *D sky130_fd_sc_hd__clkbuf_1
*CAP
1 A[1] 0.000442576
2 *236:A 0.000442576
3 *236:A ZF 0.00013138
4 *236:A result[1] 0.000126648
5 *236:A *230:A 0.000222878
6 *236:A *230:C 3.01894e-05
7 *236:A *242:A 0
*RES
1 A[1] *236:A 23.5871 
*END

*D_NET *3 0.000885908
*CONN
*P A[2] I
*I *237:A I *D sky130_fd_sc_hd__buf_1
*CAP
1 A[2] 0.00042548
2 *237:A 0.00042548
3 *237:A *242:A 3.49483e-05
4 *237:A *78:10 0
*RES
1 A[2] *237:A 23.516 
*END

*D_NET *4 0.000570764
*CONN
*P A[3] I
*I *238:A I *D sky130_fd_sc_hd__buf_1
*CAP
1 A[3] 0.0001672
2 *238:A 0.0001672
3 *238:A *239:A 0.000236364
*RES
1 A[3] *238:A 18.4264 
*END

*D_NET *5 0.000749665
*CONN
*P A[4] I
*I *239:A I *D sky130_fd_sc_hd__buf_1
*CAP
1 A[4] 0.000143004
2 *239:A 0.000143004
3 *239:A *216:A1_N 0
4 *239:A *240:A 0.000227292
5 *238:A *239:A 0.000236364
*RES
1 A[4] *239:A 19.0336 
*END

*D_NET *6 0.00232224
*CONN
*P A[5] I
*I *240:A I *D sky130_fd_sc_hd__clkbuf_2
*CAP
1 A[5] 0.000547914
2 *240:A 0.000547914
3 *240:A *203:A3 0
4 *240:A *216:A1_N 0
5 *240:A *227:A2 6.71854e-05
6 *240:A *232:A 2.41928e-05
7 *240:A *241:A 0.000286079
8 *240:A *77:8 0.000100625
9 *240:A *77:18 0
10 *240:A *81:73 0.000169873
11 *240:A *84:23 0.000351162
12 *239:A *240:A 0.000227292
*RES
1 A[5] *240:A 27.517 
*END

*D_NET *7 0.00184176
*CONN
*P A[6] I
*I *241:A I *D sky130_fd_sc_hd__clkbuf_2
*CAP
1 A[6] 0.000510455
2 *241:A 0.000510455
3 *241:A *215:A2 4.50149e-05
4 *241:A *215:A3 4.53834e-05
5 *241:A *243:A 0.00044437
6 *240:A *241:A 0.000286079
*RES
1 A[6] *241:A 19.4354 
*END

*D_NET *8 0.0014257
*CONN
*P B[0] I
*I *242:A I *D sky130_fd_sc_hd__buf_1
*CAP
1 B[0] 0.000513705
2 *242:A 0.000513705
3 *242:A result[2] 0.000130405
4 *242:A *230:C 0
5 *242:A *234:A 0.000232941
6 *242:A *65:8 0
7 *236:A *242:A 0
8 *237:A *242:A 3.49483e-05
*RES
1 B[0] *242:A 26.0138 
*END

*D_NET *9 0.00174578
*CONN
*P B[1] I
*I *243:A I *D sky130_fd_sc_hd__clkbuf_2
*CAP
1 B[1] 0.000364018
2 *243:A 0.000364018
3 *243:A result[3] 2.40537e-05
4 *243:A *215:S1 2.04825e-05
5 *243:A *216:B1 7.79781e-06
6 *243:A *235:A 0.00023554
7 *243:A *77:18 0.000184675
8 *243:A *81:105 0
9 *243:A *84:8 0.000100831
10 *241:A *243:A 0.00044437
*RES
1 B[1] *243:A 20.8965 
*END

*D_NET *10 0.00125297
*CONN
*P B[2] I
*I *234:A I *D sky130_fd_sc_hd__clkbuf_2
*CAP
1 B[2] 0.000269667
2 *234:A 0.000269667
3 *234:A result[1] 0.000350209
4 *234:A result[2] 0.000130485
5 *234:A *230:C 0
6 *242:A *234:A 0.000232941
*RES
1 B[2] *234:A 23.2089 
*END

*D_NET *15 0.00120597
*CONN
*P OP I
*I *235:A I *D sky130_fd_sc_hd__buf_1
*CAP
1 OP 0.000185668
2 *235:A 0.000185668
3 *235:A result[3] 0.000278303
4 *235:A result[4] 6.56976e-05
5 *235:A *229:C 0
6 *235:A *232:A 6.8194e-05
7 *235:A *66:25 0.000186899
8 *235:A *71:8 0
9 *243:A *235:A 0.00023554
*RES
1 OP *235:A 21.1586 
*END

*D_NET *18 0.00125252
*CONN
*P ZF O
*I *244:X O *D sky130_fd_sc_hd__buf_2
*CAP
1 ZF 0.000354489
2 *244:X 0.000354489
3 ZF result[0] 0.000311814
4 ZF *230:A 5.33433e-05
5 ZF *68:8 4.70078e-05
6 *236:A ZF 0.00013138
*RES
1 *244:X ZF 23.5846 
*END

*D_NET *19 0.000993267
*CONN
*P result[0] O
*I *245:X O *D sky130_fd_sc_hd__buf_2
*CAP
1 result[0] 0.000340727
2 *245:X 0.000340727
3 ZF result[0] 0.000311814
*RES
1 *245:X result[0] 21.1946 
*END

*D_NET *20 0.000945474
*CONN
*P result[1] O
*I *246:X O *D sky130_fd_sc_hd__buf_2
*CAP
1 result[1] 0.000226963
2 *246:X 0.000226963
3 result[1] result[2] 1.46911e-05
4 result[1] *230:C 0
5 *234:A result[1] 0.000350209
6 *236:A result[1] 0.000126648
*RES
1 *246:X result[1] 20.3167 
*END

*D_NET *21 0.000873501
*CONN
*P result[2] O
*I *247:X O *D sky130_fd_sc_hd__buf_2
*CAP
1 result[2] 0.00029896
2 *247:X 0.00029896
3 result[1] result[2] 1.46911e-05
4 *234:A result[2] 0.000130485
5 *242:A result[2] 0.000130405
*RES
1 *247:X result[2] 20.3077 
*END

*D_NET *22 0.00173215
*CONN
*P result[3] O
*I *248:X O *D sky130_fd_sc_hd__buf_2
*CAP
1 result[3] 0.000345607
2 *248:X 0.000345607
3 result[3] result[4] 0.000325655
4 result[3] result[5] 2.04825e-05
5 result[3] *228:C1 3.53483e-05
6 result[3] *229:C 8.18871e-05
7 result[3] *229:D 0.00025016
8 result[3] *66:25 2.50463e-05
9 *235:A result[3] 0.000278303
10 *243:A result[3] 2.40537e-05
*RES
1 *248:X result[3] 23.267 
*END

*D_NET *23 0.000796539
*CONN
*P result[4] O
*I *249:X O *D sky130_fd_sc_hd__buf_2
*CAP
1 result[4] 0.000143927
2 *249:X 0.000143927
3 result[4] result[5] 0.000117334
4 result[3] result[4] 0.000325655
5 *235:A result[4] 6.56976e-05
*RES
1 *249:X result[4] 18.8021 
*END

*D_NET *24 0.000578824
*CONN
*P result[5] O
*I *250:X O *D sky130_fd_sc_hd__buf_2
*CAP
1 result[5] 0.000210195
2 *250:X 0.000210195
3 result[5] *228:C1 2.06178e-05
4 result[3] result[5] 2.04825e-05
5 result[4] result[5] 0.000117334
*RES
1 *250:X result[5] 18.1949 
*END

*D_NET *25 0.00104793
*CONN
*P result[6] O
*I *251:X O *D sky130_fd_sc_hd__buf_2
*CAP
1 result[6] 0.000520363
2 *251:X 0.000520363
3 result[6] *251:A 7.20217e-06
4 *233:A result[6] 0
*RES
1 *251:X result[6] 23.3893 
*END

*D_NET *26 0.00379197
*CONN
*I *199:A1 I *D sky130_fd_sc_hd__o21a_1
*I *208:A1 I *D sky130_fd_sc_hd__o211a_1
*I *207:B I *D sky130_fd_sc_hd__or3_1
*I *214:A2 I *D sky130_fd_sc_hd__a211o_1
*I *197:B I *D sky130_fd_sc_hd__or3b_1
*I *185:Y O *D sky130_fd_sc_hd__inv_2
*CAP
1 *199:A1 2.23854e-05
2 *208:A1 0
3 *207:B 9.30942e-05
4 *214:A2 9.7019e-05
5 *197:B 0
6 *185:Y 0.000106871
7 *26:25 0.000368728
8 *26:21 0.000484888
9 *26:15 0.000950325
10 *26:6 0.000728538
11 *207:B *208:C1 5.71472e-05
12 *207:B *214:A1 8.43535e-06
13 *207:B *214:C1 0.000142856
14 *214:A2 *214:A1 6.37566e-05
15 *214:A2 *214:C1 1.04232e-05
16 *214:A2 *247:A 1.3701e-05
17 *26:6 *185:A 2.54304e-06
18 *26:6 *37:23 3.66026e-05
19 *26:15 *185:A 2.42122e-05
20 *26:15 *197:A 0.000171666
21 *26:21 *199:A2 0
22 *26:21 *208:A2 1.02504e-05
23 *26:21 *230:A 0
24 *26:21 *244:A 0
25 *26:21 *246:A 0
26 *26:21 *68:8 3.67257e-05
27 *26:21 *75:16 3.5707e-05
28 *26:25 *208:A2 2.22043e-05
29 *26:25 *208:B1 1.856e-05
30 *26:25 *208:C1 1.9643e-05
31 *26:25 *230:C 0
32 *26:25 *231:A 0.000227736
33 *26:25 *246:A 0
34 *26:25 *65:8 3.79467e-05
*RES
1 *185:Y *26:6 10.6571 
2 *26:6 *197:B 9.3 
3 *26:6 *26:15 10 
4 *26:15 *26:21 9.75 
5 *26:21 *26:25 8.875 
6 *26:25 *214:A2 11.5143 
7 *26:25 *207:B 11.4964 
8 *26:21 *208:A1 13.8 
9 *26:15 *199:A1 9.72857 
*END

*D_NET *27 0.00463762
*CONN
*I *203:A2 I *D sky130_fd_sc_hd__a311o_1
*I *191:A1 I *D sky130_fd_sc_hd__o211a_1
*I *195:A1 I *D sky130_fd_sc_hd__a211o_1
*I *211:A1 I *D sky130_fd_sc_hd__o2111a_1
*I *206:A1 I *D sky130_fd_sc_hd__o22a_1
*I *186:Y O *D sky130_fd_sc_hd__inv_2
*CAP
1 *203:A2 2.2045e-05
2 *191:A1 0.000198782
3 *195:A1 0
4 *211:A1 0
5 *206:A1 0.000167634
6 *186:Y 0.000248521
7 *27:38 0.000226614
8 *27:18 0.000229478
9 *27:16 0.000690966
10 *27:12 0.000871855
11 *191:A1 *195:B1 9.66547e-05
12 *191:A1 *211:C1 0
13 *191:A1 *213:A2 2.16719e-05
14 *191:A1 *76:49 0
15 *191:A1 *76:109 0
16 *191:A1 *83:25 0.000102207
17 *203:A2 *203:A3 5.04841e-06
18 *206:A1 *194:A3 0.000180955
19 *206:A1 *206:A2 1.74352e-05
20 *206:A1 *211:D1 0
21 *206:A1 *214:A1 9.54798e-06
22 *206:A1 *28:14 2.50022e-05
23 *206:A1 *31:28 0.00010096
24 *206:A1 *65:42 0
25 *27:12 *203:A3 0.000139003
26 *27:12 *203:B1 0.000260377
27 *27:12 *218:A2 6.20091e-06
28 *27:12 *31:10 8.00806e-05
29 *27:12 *80:14 0
30 *27:12 *81:20 9.25014e-06
31 *27:12 *84:33 5.74562e-05
32 *27:16 *195:C1 0.000482828
33 *27:16 *203:A3 2.976e-05
34 *27:16 *213:C1 3.99895e-05
35 *27:16 *214:A1 5.33005e-05
36 *27:16 *214:C1 2.77289e-05
37 *27:18 *214:A1 0.000119574
38 *27:18 *28:14 5.2077e-05
39 *27:38 *195:B1 5.80706e-06
40 *27:38 *213:A2 4.46186e-06
41 *27:38 *214:A1 3.17148e-05
42 *27:38 *28:14 2.26327e-05
43 *27:38 *76:49 0
*RES
1 *186:Y *27:12 23.5321 
2 *27:12 *27:16 12.4286 
3 *27:16 *27:18 1.64286 
4 *27:18 *206:A1 17.6036 
5 *27:18 *211:A1 13.8 
6 *27:16 *27:38 0.732143 
7 *27:38 *195:A1 13.8 
8 *27:38 *191:A1 18.425 
9 *27:12 *203:A2 9.72857 
*END

*D_NET *28 0.00303503
*CONN
*I *210:B1 I *D sky130_fd_sc_hd__a211o_1
*I *213:A2 I *D sky130_fd_sc_hd__o211a_1
*I *195:A2 I *D sky130_fd_sc_hd__a211o_1
*I *187:X O *D sky130_fd_sc_hd__and2b_1
*CAP
1 *210:B1 1.77303e-05
2 *213:A2 0.000368909
3 *195:A2 1.16062e-05
4 *187:X 4.34401e-05
5 *28:14 0.000819439
6 *28:6 0.000500093
7 *195:A2 *214:A1 5.52302e-05
8 *195:A2 *214:C1 5.52302e-05
9 *210:B1 *210:A1 5.04841e-06
10 *210:B1 *76:21 0
11 *213:A2 *195:C1 5.86384e-05
12 *213:A2 *211:C1 2.49484e-05
13 *213:A2 *213:B1 1.789e-05
14 *213:A2 *214:C1 0.000438788
15 *28:6 *76:21 5.17614e-05
16 *28:14 *210:A2 2.59355e-05
17 *28:14 *211:B1 0.00027032
18 *28:14 *211:C1 6.20654e-05
19 *28:14 *211:D1 1.26938e-05
20 *28:14 *76:21 3.48705e-05
21 *28:14 *76:30 2.05757e-05
22 *28:14 *76:45 1.39726e-05
23 *191:A1 *213:A2 2.16719e-05
24 *206:A1 *28:14 2.50022e-05
25 *27:18 *28:14 5.2077e-05
26 *27:38 *213:A2 4.46186e-06
27 *27:38 *28:14 2.26327e-05
*RES
1 *187:X *28:6 10.2464 
2 *28:6 *28:14 12.8393 
3 *28:14 *195:A2 14.3357 
4 *28:14 *213:A2 21.1393 
5 *28:6 *210:B1 9.72857 
*END

*D_NET *29 0.00163947
*CONN
*I *213:B1 I *D sky130_fd_sc_hd__o211a_1
*I *191:A2 I *D sky130_fd_sc_hd__o211a_1
*I *188:X O *D sky130_fd_sc_hd__mux2_1
*CAP
1 *213:B1 0.000126861
2 *191:A2 0.000251745
3 *188:X 7.433e-05
4 *29:6 0.000452937
5 *191:A2 *76:59 0.000311121
6 *191:A2 *83:25 2.47724e-05
7 *213:B1 *195:C1 5.49489e-05
8 *213:B1 *213:C1 3.51393e-05
9 *213:B1 *65:86 0.000153047
10 *29:6 *76:59 0.000136682
11 *213:A2 *213:B1 1.789e-05
*RES
1 *188:X *29:6 10.6571 
2 *29:6 *191:A2 13.8536 
3 *29:6 *213:B1 21.2107 
*END

*D_NET *30 0.000408756
*CONN
*I *191:B1 I *D sky130_fd_sc_hd__o211a_1
*I *189:X O *D sky130_fd_sc_hd__or3b_1
*CAP
1 *191:B1 0.000113908
2 *189:X 0.000113908
3 *191:B1 *211:C1 0
4 *191:B1 *230:D 5.52238e-05
5 *191:B1 *76:109 0.000125717
*RES
1 *189:X *191:B1 29.7786 
*END

*D_NET *31 0.00467874
*CONN
*I *218:A1 I *D sky130_fd_sc_hd__o21a_1
*I *201:A I *D sky130_fd_sc_hd__and2_1
*I *191:C1 I *D sky130_fd_sc_hd__o211a_1
*I *206:B2 I *D sky130_fd_sc_hd__o22a_1
*I *211:D1 I *D sky130_fd_sc_hd__o2111a_1
*I *190:Y O *D sky130_fd_sc_hd__inv_2
*CAP
1 *218:A1 0.000142233
2 *201:A 0
3 *191:C1 0.000401421
4 *206:B2 0
5 *211:D1 0.000140448
6 *190:Y 6.35816e-05
7 *31:28 0.000430853
8 *31:24 0.000903206
9 *31:12 0.000354175
10 *31:10 0.000348609
11 *191:C1 *193:C 6.51862e-05
12 *191:C1 *193:D 3.23077e-05
13 *191:C1 *195:C1 0
14 *191:C1 *206:A2 7.14981e-06
15 *191:C1 *213:A1 4.2313e-06
16 *191:C1 *65:36 4.19624e-06
17 *191:C1 *65:42 6.70947e-05
18 *191:C1 *76:49 0.000330215
19 *191:C1 *76:109 3.34366e-05
20 *211:D1 *194:A3 0
21 *211:D1 *205:B 0
22 *211:D1 *207:C 0.000143877
23 *211:D1 *231:A 0
24 *218:A1 *218:A2 0.000154027
25 *31:10 *218:A2 4.15914e-05
26 *31:12 *186:A 7.7153e-05
27 *31:12 *203:B1 3.13687e-05
28 *31:24 *186:A 0.000185655
29 *31:24 *194:B1 6.25895e-05
30 *31:24 *195:C1 1.15281e-05
31 *31:24 *206:A2 2.47508e-05
32 *31:24 *65:42 0.000153293
33 *31:28 *194:A3 0.000114723
34 *31:28 *206:A2 1.32552e-05
35 *31:28 *206:B1 0
36 *31:28 *65:42 0.00014285
37 *206:A1 *211:D1 0
38 *206:A1 *31:28 0.00010096
39 *27:12 *31:10 8.00806e-05
40 *28:14 *211:D1 1.26938e-05
*RES
1 *190:Y *31:10 19.9429 
2 *31:10 *31:12 3 
3 *31:12 *31:24 13.8036 
4 *31:24 *31:28 5.89286 
5 *31:28 *211:D1 21.1571 
6 *31:28 *206:B2 9.3 
7 *31:24 *191:C1 26.3179 
8 *31:12 *201:A 9.3 
9 *31:10 *218:A1 12.7107 
*END

*D_NET *32 0.000385257
*CONN
*I *195:B1 I *D sky130_fd_sc_hd__a211o_1
*I *191:X O *D sky130_fd_sc_hd__o211a_1
*CAP
1 *195:B1 0.000141398
2 *191:X 0.000141398
3 *195:B1 *76:49 0
4 *191:A1 *195:B1 9.66547e-05
5 *27:38 *195:B1 5.80706e-06
*RES
1 *191:X *195:B1 30.0821 
*END

*D_NET *33 0.00427349
*CONN
*I *218:A2 I *D sky130_fd_sc_hd__o21a_1
*I *211:A2 I *D sky130_fd_sc_hd__o2111a_1
*I *194:A3 I *D sky130_fd_sc_hd__a31o_1
*I *192:X O *D sky130_fd_sc_hd__and2b_1
*CAP
1 *218:A2 0.000284931
2 *211:A2 0
3 *194:A3 0.000187589
4 *192:X 0
5 *33:8 0.000765271
6 *33:4 0.000862613
7 *194:A3 *195:C1 2.36643e-05
8 *194:A3 *206:A2 0.000327456
9 *194:A3 *65:42 0.00031362
10 *218:A2 *218:B1 0
11 *218:A2 *80:14 0
12 *33:8 *194:A1 0.000185124
13 *33:8 *194:B1 0.000138738
14 *33:8 *200:A0 2.24079e-05
15 *33:8 *200:A1 9.99644e-06
16 *33:8 *201:B 9.83442e-05
17 *33:8 *214:A1 3.18676e-05
18 *33:8 *65:75 0.000318474
19 *33:8 *65:86 4.27935e-05
20 *33:8 *76:45 7.47252e-05
21 *33:8 *84:33 4.72917e-05
22 *33:8 *84:35 4.10843e-05
23 *206:A1 *194:A3 0.000180955
24 *211:D1 *194:A3 0
25 *218:A1 *218:A2 0.000154027
26 *27:12 *218:A2 6.20091e-06
27 *31:10 *218:A2 4.15914e-05
28 *31:28 *194:A3 0.000114723
*RES
1 *192:X *33:4 9.3 
2 *33:4 *33:8 11.6429 
3 *33:8 *194:A3 25.4071 
4 *33:8 *211:A2 9.3 
5 *33:4 *218:A2 22.6393 
*END

*D_NET *34 0.000818824
*CONN
*I *194:B1 I *D sky130_fd_sc_hd__a31o_1
*I *193:X O *D sky130_fd_sc_hd__and4b_1
*CAP
1 *194:B1 0.000232104
2 *193:X 0.000232104
3 *194:B1 *195:C1 7.6644e-05
4 *194:B1 *206:A2 7.6644e-05
5 *31:24 *194:B1 6.25895e-05
6 *33:8 *194:B1 0.000138738
*RES
1 *193:X *194:B1 32.225 
*END

*D_NET *35 0.0020251
*CONN
*I *195:C1 I *D sky130_fd_sc_hd__a211o_1
*I *194:X O *D sky130_fd_sc_hd__a31o_1
*CAP
1 *195:C1 0.000452255
2 *194:X 0.000452255
3 *195:C1 *193:C 0
4 *195:C1 *193:D 1.85236e-05
5 *195:C1 *200:A0 1.99769e-05
6 *195:C1 *206:A2 6.90714e-05
7 *195:C1 *214:C1 0.000122081
8 *195:C1 *65:42 1.34548e-05
9 *195:C1 *65:86 0.000169236
10 *191:C1 *195:C1 0
11 *194:A3 *195:C1 2.36643e-05
12 *194:B1 *195:C1 7.6644e-05
13 *213:A2 *195:C1 5.86384e-05
14 *213:B1 *195:C1 5.49489e-05
15 *27:16 *195:C1 0.000482828
16 *31:24 *195:C1 1.15281e-05
*RES
1 *194:X *195:C1 38.2071 
*END

*D_NET *36 0.00106153
*CONN
*I *199:A2 I *D sky130_fd_sc_hd__o21a_1
*I *195:X O *D sky130_fd_sc_hd__a211o_1
*CAP
1 *199:A2 0.000357789
2 *195:X 0.000357789
3 *199:A2 *204:A0 0
4 *199:A2 *208:C1 0.00010409
5 *199:A2 *211:C1 0.000140001
6 *199:A2 *214:C1 7.61932e-05
7 *199:A2 *75:16 2.56694e-05
8 *199:A2 *77:65 0
9 *26:21 *199:A2 0
*RES
1 *195:X *199:A2 34.85 
*END

*D_NET *37 0.0021502
*CONN
*I *228:B1 I *D sky130_fd_sc_hd__o211a_1
*I *224:A2 I *D sky130_fd_sc_hd__a31o_1
*I *197:C_N I *D sky130_fd_sc_hd__or3b_1
*I *196:Y O *D sky130_fd_sc_hd__nor2_1
*CAP
1 *228:B1 4.91284e-05
2 *224:A2 9.56773e-05
3 *197:C_N 0
4 *196:Y 0.000208346
5 *37:23 0.000572371
6 *37:12 0.000635911
7 *224:A2 *224:A3 0.000175519
8 *228:B1 *228:C1 3.17016e-05
9 *37:12 *77:34 0.000143652
10 *37:12 *77:40 4.6176e-05
11 *37:23 *185:A 0.000126218
12 *37:23 *228:C1 2.89016e-05
13 *26:6 *37:23 3.66026e-05
*RES
1 *196:Y *37:12 21.6036 
2 *37:12 *197:C_N 9.3 
3 *37:12 *37:23 8.07143 
4 *37:23 *224:A2 20.55 
5 *37:23 *228:B1 10.2643 
*END

*D_NET *38 0.00234785
*CONN
*I *225:A1 I *D sky130_fd_sc_hd__mux2_1
*I *198:A0 I *D sky130_fd_sc_hd__mux2_1
*I *204:A0 I *D sky130_fd_sc_hd__mux2_1
*I *197:X O *D sky130_fd_sc_hd__or3b_1
*CAP
1 *225:A1 6.52777e-05
2 *198:A0 0
3 *204:A0 0.000195476
4 *197:X 8.18244e-05
5 *38:12 0.000336005
6 *38:10 0.00028763
7 *204:A0 *199:B1 0
8 *204:A0 *75:16 0
9 *204:A0 *77:65 0.000343011
10 *225:A1 *198:S 2.89114e-05
11 *225:A1 *226:A 1.32552e-05
12 *225:A1 *77:59 0.000128496
13 *38:10 *77:40 3.4846e-06
14 *38:10 *77:57 1.81469e-05
15 *38:12 *198:S 0.000269384
16 *38:12 *77:59 0.000576947
17 *199:A2 *204:A0 0
*RES
1 *197:X *38:10 19.6393 
2 *38:10 *38:12 5.875 
3 *38:12 *204:A0 22.9786 
4 *38:12 *198:A0 9.3 
5 *38:10 *225:A1 11.0679 
*END

*D_NET *39 0.000503613
*CONN
*I *199:B1 I *D sky130_fd_sc_hd__o21a_1
*I *198:X O *D sky130_fd_sc_hd__mux2_1
*CAP
1 *199:B1 0.000187733
2 *198:X 0.000187733
3 *199:B1 *75:16 0.000128146
4 *204:A0 *199:B1 0
*RES
1 *198:X *199:B1 30.6 
*END

*D_NET *40 0.000498774
*CONN
*I *201:B I *D sky130_fd_sc_hd__and2_1
*I *200:X O *D sky130_fd_sc_hd__mux2_1
*CAP
1 *201:B 0.00015214
2 *200:X 0.00015214
3 *201:B *194:A1 7.45188e-05
4 *201:B *203:B1 2.16315e-05
5 *33:8 *201:B 9.83442e-05
*RES
1 *200:X *201:B 30.4929 
*END

*D_NET *41 0.000928661
*CONN
*I *203:B1 I *D sky130_fd_sc_hd__a311o_1
*I *201:X O *D sky130_fd_sc_hd__and2_1
*CAP
1 *203:B1 0.000204292
2 *201:X 0.000204292
3 *203:B1 *194:A1 0
4 *203:B1 *196:A 2.95642e-05
5 *203:B1 *206:A2 0
6 *203:B1 *81:20 3.39964e-05
7 *203:B1 *84:56 0.00014314
8 *201:B *203:B1 2.16315e-05
9 *27:12 *203:B1 0.000260377
10 *31:12 *203:B1 3.13687e-05
*RES
1 *201:X *203:B1 32.2071 
*END

*D_NET *42 0.00309741
*CONN
*I *221:A I *D sky130_fd_sc_hd__and2_1
*I *219:A1 I *D sky130_fd_sc_hd__o21a_1
*I *203:C1 I *D sky130_fd_sc_hd__a311o_1
*I *202:Y O *D sky130_fd_sc_hd__inv_2
*CAP
1 *221:A 0.000524742
2 *219:A1 0
3 *203:C1 0.000154051
4 *202:Y 0
5 *42:10 0.000273229
6 *42:4 0.00064392
7 *203:C1 *202:A 3.34366e-05
8 *203:C1 *203:A3 0.000138881
9 *203:C1 *217:B 0.000146474
10 *203:C1 *222:A1 9.25014e-06
11 *203:C1 *76:85 6.12813e-05
12 *203:C1 *81:20 1.5942e-05
13 *203:C1 *84:33 8.50152e-05
14 *221:A *230:D 0.000677761
15 *42:10 *202:A 0.000123288
16 *42:10 *222:A1 0.000114045
17 *42:10 *230:D 9.60939e-05
*RES
1 *202:Y *42:4 9.3 
2 *42:4 *42:10 7.08929 
3 *42:10 *203:C1 18.0143 
4 *42:10 *219:A1 13.8 
5 *42:4 *221:A 17.1393 
*END

*D_NET *43 0.00326191
*CONN
*I *208:A2 I *D sky130_fd_sc_hd__o211a_1
*I *203:X O *D sky130_fd_sc_hd__a311o_1
*CAP
1 *208:A2 0.00143325
2 *203:X 0.00143325
3 *208:A2 *188:A1 1.23511e-05
4 *208:A2 *196:A 0
5 *208:A2 *200:A0 0
6 *208:A2 *206:A2 2.34969e-05
7 *208:A2 *208:B1 2.06178e-05
8 *208:A2 *65:86 0.000265378
9 *208:A2 *65:101 4.11173e-05
10 *208:A2 *78:23 0
11 *208:A2 *84:73 0
12 *26:21 *208:A2 1.02504e-05
13 *26:25 *208:A2 2.22043e-05
*RES
1 *203:X *208:A2 40.6092 
*END

*D_NET *44 0.000680387
*CONN
*I *208:B1 I *D sky130_fd_sc_hd__o211a_1
*I *204:X O *D sky130_fd_sc_hd__mux2_1
*CAP
1 *208:B1 0.000181754
2 *204:X 0.000181754
3 *208:B1 *208:C1 5.31122e-05
4 *208:B1 *230:D 0.00022459
5 *208:A2 *208:B1 2.06178e-05
6 *26:25 *208:B1 1.856e-05
*RES
1 *204:X *208:B1 30.5107 
*END

*D_NET *45 0.00021297
*CONN
*I *206:B1 I *D sky130_fd_sc_hd__o22a_1
*I *205:X O *D sky130_fd_sc_hd__and2b_1
*CAP
1 *206:B1 8.63968e-05
2 *205:X 8.63968e-05
3 *206:B1 *207:C 4.01768e-05
4 *31:28 *206:B1 0
*RES
1 *205:X *206:B1 20.3857 
*END

*D_NET *46 0.000836461
*CONN
*I *207:C I *D sky130_fd_sc_hd__or3_1
*I *206:X O *D sky130_fd_sc_hd__o22a_1
*CAP
1 *207:C 0.000274626
2 *206:X 0.000274626
3 *207:C *205:B 0
4 *207:C *207:A 4.1091e-05
5 *207:C *211:C1 6.20654e-05
6 *206:B1 *207:C 4.01768e-05
7 *211:D1 *207:C 0.000143877
*RES
1 *206:X *207:C 32.6179 
*END

*D_NET *47 0.000820268
*CONN
*I *208:C1 I *D sky130_fd_sc_hd__o211a_1
*I *207:X O *D sky130_fd_sc_hd__or3_1
*CAP
1 *208:C1 0.000200977
2 *207:X 0.000200977
3 *208:C1 *230:D 5.52302e-05
4 *208:C1 *231:A 0.0001098
5 *208:C1 *75:16 1.92905e-05
6 *199:A2 *208:C1 0.00010409
7 *207:B *208:C1 5.71472e-05
8 *208:B1 *208:C1 5.31122e-05
9 *26:25 *208:C1 1.9643e-05
*RES
1 *207:X *208:C1 32.7429 
*END

*D_NET *48 0.00166859
*CONN
*I *214:A1 I *D sky130_fd_sc_hd__a211o_1
*I *209:Y O *D sky130_fd_sc_hd__inv_2
*CAP
1 *214:A1 0.000469638
2 *209:Y 0.000469638
3 *214:A1 *207:A 5.52302e-05
4 *214:A1 *209:A 2.72602e-05
5 *214:A1 *214:C1 0.000218169
6 *214:A1 *76:45 5.52302e-05
7 *214:A1 *76:49 0
8 *195:A2 *214:A1 5.52302e-05
9 *206:A1 *214:A1 9.54798e-06
10 *207:B *214:A1 8.43535e-06
11 *214:A2 *214:A1 6.37566e-05
12 *27:16 *214:A1 5.33005e-05
13 *27:18 *214:A1 0.000119574
14 *27:38 *214:A1 3.17148e-05
15 *33:8 *214:A1 3.18676e-05
*RES
1 *209:Y *214:A1 36.7964 
*END

*D_NET *49 0.000576108
*CONN
*I *211:B1 I *D sky130_fd_sc_hd__o2111a_1
*I *210:X O *D sky130_fd_sc_hd__a211o_1
*CAP
1 *211:B1 8.0424e-05
2 *210:X 8.0424e-05
3 *211:B1 *76:30 7.43578e-06
4 *211:B1 *76:45 0.000137505
5 *28:14 *211:B1 0.00027032
*RES
1 *210:X *211:B1 21.6179 
*END

*D_NET *50 0.000750294
*CONN
*I *214:B1 I *D sky130_fd_sc_hd__a211o_1
*I *211:X O *D sky130_fd_sc_hd__o2111a_1
*CAP
1 *214:B1 0.000187595
2 *211:X 0.000187595
3 *214:B1 *231:A 0.000123145
4 *214:B1 *65:8 4.34887e-05
5 *214:B1 *76:21 1.33343e-05
6 *214:B1 *76:30 0.000139907
7 *214:B1 *76:45 5.52302e-05
*RES
1 *211:X *214:B1 31.0107 
*END

*D_NET *51 0.00403537
*CONN
*I *216:B1 I *D sky130_fd_sc_hd__a2bb2o_1
*I *219:B1 I *D sky130_fd_sc_hd__o21a_1
*I *213:C1 I *D sky130_fd_sc_hd__o211a_1
*I *212:X O *D sky130_fd_sc_hd__and2b_1
*CAP
1 *216:B1 0.000450406
2 *219:B1 0
3 *213:C1 0.000278674
4 *212:X 0.000158356
5 *51:31 0.000554743
6 *51:10 0.000541367
7 *213:C1 *196:A 0.000191382
8 *213:C1 *203:A3 0.000159086
9 *213:C1 *217:B 2.05938e-05
10 *213:C1 *222:A1 6.8646e-06
11 *213:C1 *81:20 0.000103253
12 *216:B1 *188:A0 3.19149e-05
13 *216:B1 *215:A2 9.25014e-06
14 *216:B1 *215:S1 2.84398e-05
15 *216:B1 *220:A1_N 9.71197e-05
16 *216:B1 *220:B1 9.90367e-05
17 *216:B1 *220:B2 9.47712e-05
18 *216:B1 *227:A1 0.0001399
19 *216:B1 *76:59 0
20 *216:B1 *77:20 1.5424e-05
21 *216:B1 *81:88 7.6644e-05
22 *216:B1 *81:105 0.000101545
23 *216:B1 *84:8 4.56594e-05
24 *51:10 *196:A 8.90892e-05
25 *51:10 *222:A1 3.0285e-05
26 *51:10 *230:D 0.000138672
27 *51:31 *188:A0 0.000309266
28 *51:31 *76:68 3.97677e-05
29 *51:31 *83:25 0.000140933
30 *213:B1 *213:C1 3.51393e-05
31 *243:A *216:B1 7.79781e-06
32 *27:16 *213:C1 3.99895e-05
*RES
1 *212:X *51:10 16.4964 
2 *51:10 *213:C1 20.2107 
3 *51:10 *51:31 7.92857 
4 *51:31 *219:B1 9.3 
5 *51:31 *216:B1 27.6929 
*END

*D_NET *52 0.00161008
*CONN
*I *214:C1 I *D sky130_fd_sc_hd__a211o_1
*I *213:X O *D sky130_fd_sc_hd__o211a_1
*CAP
1 *214:C1 0.000231692
2 *213:X 0.000231692
3 *214:C1 *207:A 5.52302e-05
4 *195:A2 *214:C1 5.52302e-05
5 *195:C1 *214:C1 0.000122081
6 *199:A2 *214:C1 7.61932e-05
7 *207:B *214:C1 0.000142856
8 *213:A2 *214:C1 0.000438788
9 *214:A1 *214:C1 0.000218169
10 *214:A2 *214:C1 1.04232e-05
11 *27:16 *214:C1 2.77289e-05
*RES
1 *213:X *214:C1 26.9571 
*END

*D_NET *53 0.000848534
*CONN
*I *216:B2 I *D sky130_fd_sc_hd__a2bb2o_1
*I *215:X O *D sky130_fd_sc_hd__mux4_1
*CAP
1 *216:B2 0.000328578
2 *215:X 0.000328578
3 *216:B2 *215:A2 5.03594e-05
4 *216:B2 *215:S1 9.9974e-05
5 *216:B2 *80:6 4.10445e-05
*RES
1 *215:X *216:B2 32.35 
*END

*D_NET *54 0.000639302
*CONN
*I *218:B1 I *D sky130_fd_sc_hd__o21a_1
*I *217:X O *D sky130_fd_sc_hd__or3_1
*CAP
1 *218:B1 0.000227728
2 *217:X 0.000227728
3 *218:B1 *220:B1 0.000132764
4 *218:B1 *80:14 0
5 *218:B1 *82:20 5.10822e-05
6 *218:A2 *218:B1 0
*RES
1 *217:X *218:B1 31.975 
*END

*D_NET *55 0.00131532
*CONN
*I *220:B1 I *D sky130_fd_sc_hd__a2bb2o_1
*I *218:X O *D sky130_fd_sc_hd__o21a_1
*CAP
1 *220:B1 0.000281976
2 *218:X 0.000281976
3 *220:B1 *188:A0 0
4 *220:B1 *220:A1_N 0.000427611
5 *220:B1 *220:B2 5.71472e-05
6 *220:B1 *79:12 3.48139e-05
7 *220:B1 *82:20 0
8 *216:B1 *220:B1 9.90367e-05
9 *218:B1 *220:B1 0.000132764
*RES
1 *218:X *220:B1 35.0464 
*END

*D_NET *56 0.000337139
*CONN
*I *220:B2 I *D sky130_fd_sc_hd__a2bb2o_1
*I *219:X O *D sky130_fd_sc_hd__o21a_1
*CAP
1 *220:B2 8.95846e-05
2 *219:X 8.95846e-05
3 *220:B2 *188:A0 6.05161e-06
4 *216:B1 *220:B2 9.47712e-05
5 *220:B1 *220:B2 5.71472e-05
*RES
1 *219:X *220:B2 20.7786 
*END

*D_NET *57 0.00139127
*CONN
*I *222:B1 I *D sky130_fd_sc_hd__a21o_1
*I *228:A2 I *D sky130_fd_sc_hd__o211a_1
*I *221:X O *D sky130_fd_sc_hd__and2_1
*CAP
1 *222:B1 0.000126427
2 *228:A2 0
3 *221:X 0.000115192
4 *57:10 0.000241619
5 *222:B1 *224:A3 0.000144375
6 *222:B1 *82:40 1.02504e-05
7 *222:B1 *82:53 0.000351931
8 *57:10 *224:A3 0.00015234
9 *57:10 *224:B1 9.60875e-05
10 *57:10 *82:40 0.000153047
*RES
1 *221:X *57:10 16.6929 
2 *57:10 *228:A2 13.8 
3 *57:10 *222:B1 17.8179 
*END

*D_NET *58 0.000877548
*CONN
*I *224:A3 I *D sky130_fd_sc_hd__a31o_1
*I *222:X O *D sky130_fd_sc_hd__a21o_1
*CAP
1 *224:A3 0.000190183
2 *222:X 0.000190183
3 *224:A3 *82:40 2.49484e-05
4 *222:B1 *224:A3 0.000144375
5 *224:A2 *224:A3 0.000175519
6 *57:10 *224:A3 0.00015234
*RES
1 *222:X *224:A3 32.2071 
*END

*D_NET *59 0.00104384
*CONN
*I *224:B1 I *D sky130_fd_sc_hd__a31o_1
*I *223:Y O *D sky130_fd_sc_hd__nor2_1
*CAP
1 *224:B1 0.000237327
2 *223:Y 0.000237327
3 *224:B1 *223:A 0.000103267
4 *224:B1 *223:B 5.33978e-05
5 *224:B1 *230:D 0.000117761
6 *224:B1 *250:A 5.33005e-05
7 *224:B1 *77:28 7.77652e-05
8 *224:B1 *77:34 6.76043e-05
9 *57:10 *224:B1 9.60875e-05
*RES
1 *223:Y *224:B1 33.1893 
*END

*D_NET *60 0.000731616
*CONN
*I *226:A I *D sky130_fd_sc_hd__inv_2
*I *225:X O *D sky130_fd_sc_hd__mux2_1
*CAP
1 *226:A 0.000253102
2 *225:X 0.000253102
3 *226:A *198:S 0.000156933
4 *226:A *251:A 5.52238e-05
5 *225:A1 *226:A 1.32552e-05
*RES
1 *225:X *226:A 31.975 
*END

*D_NET *61 0.000572566
*CONN
*I *229:C I *D sky130_fd_sc_hd__or4_1
*I *227:Y O *D sky130_fd_sc_hd__a21oi_1
*CAP
1 *229:C 9.83956e-05
2 *227:Y 9.83956e-05
3 *229:C *229:D 3.51442e-05
4 *229:C *248:A 3.34366e-05
5 *229:C *71:8 0.000225307
6 result[3] *229:C 8.18871e-05
7 *235:A *229:C 0
*RES
1 *227:Y *229:C 30.7607 
*END

*D_NET *62 0.00128859
*CONN
*I *229:D I *D sky130_fd_sc_hd__or4_1
*I *228:X O *D sky130_fd_sc_hd__o211a_1
*CAP
1 *229:D 0.000240129
2 *228:X 0.000240129
3 *229:D *228:C1 6.8646e-06
4 *229:D *248:A 7.25104e-05
5 *229:D *250:A 0.000443654
6 result[3] *229:D 0.00025016
7 *229:C *229:D 3.51442e-05
*RES
1 *228:X *229:D 34.0821 
*END

*D_NET *63 0.00516212
*CONN
*I *230:D I *D sky130_fd_sc_hd__nor4_1
*I *229:X O *D sky130_fd_sc_hd__or4_1
*CAP
1 *230:D 0.00112777
2 *229:X 0.00112777
3 *230:D *189:A 0.000343484
4 *230:D *189:B 0.000105925
5 *230:D *189:C_N 5.65955e-05
6 *230:D *196:A 5.49489e-05
7 *230:D *196:B 0.000128894
8 *230:D *204:S 0
9 *230:D *211:C1 0.000184745
10 *230:D *212:A_N 5.52238e-05
11 *230:D *250:A 2.89114e-05
12 *230:D *69:6 4.01768e-05
13 *230:D *75:16 0.000118546
14 *230:D *77:28 0.000129515
15 *230:D *77:34 0.000294281
16 *191:B1 *230:D 5.52238e-05
17 *208:B1 *230:D 0.00022459
18 *208:C1 *230:D 5.52302e-05
19 *221:A *230:D 0.000677761
20 *224:B1 *230:D 0.000117761
21 *42:10 *230:D 9.60939e-05
22 *51:10 *230:D 0.000138672
*RES
1 *229:X *230:D 48.6714 
*END

*D_NET *64 0.00132857
*CONN