*SPEF "ieee 1481-1999"
*DESIGN "top"
*DATE "05:57:23 Monday June 09, 2025"
*VENDOR "The OpenROAD Project"
*PROGRAM "OpenROAD"
*VERSION "v2.0-16235-gedf00dff9"
*DESIGN_FLOW "NAME_SCOPE LOCAL" "PIN_CAP NONE"
*DIVIDER /
*DELIMITER :
*BUS_DELIMITER []
*T_UNIT 1 NS
*C_UNIT 1 PF
*R_UNIT 1 OHM
*L_UNIT 1 HENRY

*NAME_MAP
*3 clk
*4 flag_gt_zero
*5 reset
*6 result[0]
*7 result[1]
*8 result[2]
*9 result[3]
*10 result[4]
*11 result[5]
*12 result[6]
*13 _00_
*14 _01_
*15 _02_
*16 _03_
*17 _04_
*18 _05_
*19 _06_
*20 _07_
*21 _08_
*22 clknet_0_clk
*23 clknet_1_0__leaf_clk
*24 clknet_1_1__leaf_clk
*25 fsm\.nstate\[0\]
*26 fsm\.nstate\[1\]
*27 fsm\.nstate\[2\]
*28 fsm\.pstate\[0\]
*29 fsm\.pstate\[1\]
*30 fsm\.pstate\[2\]
*31 net1
*32 net10
*33 net11
*34 net2
*35 net3
*36 net4
*37 net5
*38 net6
*39 net7
*40 net8
*41 net9
*42 FILLER_0_15
*43 FILLER_0_27
*44 FILLER_0_29
*45 FILLER_0_3
*46 FILLER_0_41
*47 FILLER_0_57
*48 FILLER_0_69
*49 FILLER_1_15
*50 FILLER_1_27
*51 FILLER_1_3
*52 FILLER_1_35
*53 FILLER_1_40
*54 FILLER_1_52
*55 FILLER_1_57
*56 FILLER_1_69
*57 FILLER_2_15
*58 FILLER_2_27
*59 FILLER_2_29
*60 FILLER_2_3
*61 FILLER_2_47
*62 FILLER_2_59
*63 FILLER_2_71
*64 FILLER_2_79
*65 FILLER_3_15
*66 FILLER_3_26
*67 FILLER_3_3
*68 FILLER_3_60
*69 FILLER_3_66
*70 FILLER_3_73
*71 FILLER_3_78
*72 FILLER_4_29
*73 FILLER_4_3
*74 FILLER_4_35
*75 FILLER_4_67
*76 FILLER_4_7
*77 FILLER_4_71
*78 FILLER_5_23
*79 FILLER_5_46
*80 FILLER_5_53
*81 FILLER_5_57
*82 FILLER_5_61
*83 FILLER_6_13
*84 FILLER_6_25
*85 FILLER_6_29
*86 FILLER_6_38
*87 FILLER_6_46
*88 FILLER_6_56
*89 FILLER_6_64
*90 FILLER_6_72
*91 FILLER_7_15
*92 FILLER_7_3
*93 FILLER_7_39
*94 FILLER_7_51
*95 FILLER_7_55
*96 FILLER_7_57
*97 FILLER_7_69
*98 FILLER_8_15
*99 FILLER_8_27
*100 FILLER_8_29
*101 FILLER_8_3
*102 FILLER_8_41
*103 FILLER_8_53
*104 FILLER_8_65
*105 FILLER_8_77
*106 FILLER_9_15
*107 FILLER_9_27
*108 FILLER_9_29
*109 FILLER_9_3
*110 FILLER_9_41
*111 FILLER_9_53
*112 FILLER_9_57
*113 FILLER_9_69
*114 PHY_EDGE_ROW_0_Left_10
*115 PHY_EDGE_ROW_0_Right_0
*116 PHY_EDGE_ROW_1_Left_11
*117 PHY_EDGE_ROW_1_Right_1
*118 PHY_EDGE_ROW_2_Left_12
*119 PHY_EDGE_ROW_2_Right_2
*120 PHY_EDGE_ROW_3_Left_13
*121 PHY_EDGE_ROW_3_Right_3
*122 PHY_EDGE_ROW_4_Left_14
*123 PHY_EDGE_ROW_4_Right_4
*124 PHY_EDGE_ROW_5_Left_15
*125 PHY_EDGE_ROW_5_Right_5
*126 PHY_EDGE_ROW_6_Left_16
*127 PHY_EDGE_ROW_6_Right_6
*128 PHY_EDGE_ROW_7_Left_17
*129 PHY_EDGE_ROW_7_Right_7
*130 PHY_EDGE_ROW_8_Left_18
*131 PHY_EDGE_ROW_8_Right_8
*132 PHY_EDGE_ROW_9_Left_19
*133 PHY_EDGE_ROW_9_Right_9
*134 TAP_TAPCELL_ROW_0_20
*135 TAP_TAPCELL_ROW_0_21
*136 TAP_TAPCELL_ROW_1_22
*137 TAP_TAPCELL_ROW_2_23
*138 TAP_TAPCELL_ROW_3_24
*139 TAP_TAPCELL_ROW_4_25
*140 TAP_TAPCELL_ROW_5_26
*141 TAP_TAPCELL_ROW_6_27
*142 TAP_TAPCELL_ROW_7_28
*143 TAP_TAPCELL_ROW_8_29
*144 TAP_TAPCELL_ROW_9_30
*145 TAP_TAPCELL_ROW_9_31
*146 _09_
*147 _10_
*148 _11_
*149 _12_
*150 _13_
*151 _14_
*152 _15_
*153 _16_
*154 _17_
*155 _18_
*156 _19_
*157 _20_
*158 _21_
*159 _22_
*160 _23_
*161 _24_
*162 _25_
*163 _26_
*164 _27_
*165 _28_
*166 _29_
*167 _30_
*168 _31_
*169 clkbuf_0_clk
*170 clkbuf_1_0__f_clk
*171 clkbuf_1_1__f_clk
*172 clkload0
*173 hold1
*174 hold2
*175 input1
*176 output2
*177 output3
*178 output4
*179 output5
*180 output6
*181 output7
*182 output8
*183 output9

*PORTS
clk I
flag_gt_zero O
reset I
result[0] O
result[1] O
result[2] O
result[3] O
result[4] O
result[5] O
result[6] O

*D_NET *3 0.00167728
*CONN
*P clk I
*I *169:A I *D sky130_fd_sc_hd__clkbuf_16
*CAP
1 clk 0.000740094
2 *169:A 0.000740094
3 *169:A *175:A 0.000197097
4 *169:A *31:10 0
*RES
1 clk *169:A 9.60403 
*END

*D_NET *4 0.000637783
*CONN
*P flag_gt_zero O
*I *176:X O *D sky130_fd_sc_hd__buf_2
*CAP
1 flag_gt_zero 8.41772e-05
2 *176:X 8.41772e-05
3 flag_gt_zero result[3] 0.000249869
4 flag_gt_zero result[5] 0.00021956
*RES
1 *176:X flag_gt_zero 4.90503 
*END

*D_NET *5 0.000817771
*CONN
*P reset I
*I *175:A I *D sky130_fd_sc_hd__dlymetal6s2s_1
*CAP
1 reset 0.000310337
2 *175:A 0.000310337
3 *175:A *163:CLK 0
4 *169:A *175:A 0.000197097
*RES
1 reset *175:A 7.39677 
*END

*D_NET *6 0.000542403
*CONN
*P result[0] O
*I *177:X O *D sky130_fd_sc_hd__buf_2
*CAP
1 result[0] 0.000162088
2 *177:X 0.000162088
3 result[0] result[3] 0.000218228
4 result[0] result[4] 0
5 result[0] *180:A 0
*RES
1 *177:X result[0] 4.90503 
*END

*D_NET *7 0.000547348
*CONN
*P result[1] O
*I *178:X O *D sky130_fd_sc_hd__buf_2
*CAP
1 result[1] 0.000152329
2 *178:X 0.000152329
3 result[1] result[5] 0.000230979
4 result[1] *178:A 1.17114e-05
*RES
1 *178:X result[1] 4.90503 
*END

*D_NET *8 0.000897871
*CONN
*P result[2] O
*I *179:X O *D sky130_fd_sc_hd__buf_2
*CAP
1 result[2] 0.000295637
2 *179:X 0.000295637
3 result[2] result[6] 0.000220001
4 result[2] *167:A 8.65961e-05
*RES
1 *179:X result[2] 10.185 
*END

*D_NET *9 0.00110629
*CONN
*P result[3] O
*I *180:X O *D sky130_fd_sc_hd__buf_2
*CAP
1 result[3] 0.000240232
2 *180:X 0.000240232
3 result[3] result[5] 1.32141e-05
4 result[3] *168:A 5.8807e-05
5 result[3] *176:A 3.74161e-05
6 result[3] *34:17 4.82863e-05
7 flag_gt_zero result[3] 0.000249869
8 result[0] result[3] 0.000218228
*RES
1 *180:X result[3] 7.1233 
*END

*D_NET *10 0.000588445
*CONN
*P result[4] O
*I *181:X O *D sky130_fd_sc_hd__buf_2
*CAP
1 result[4] 0.000273954
2 *181:X 0.000273954
3 result[4] *181:A 4.05358e-05
4 result[0] result[4] 0
*RES
1 *181:X result[4] 5.92503 
*END

*D_NET *11 0.00101728
*CONN
*P result[5] O
*I *182:X O *D sky130_fd_sc_hd__buf_2
*CAP
1 result[5] 0.000228417
2 *182:X 0.000228417
3 result[5] *178:A 3.86607e-05
4 result[5] *182:A 5.80335e-05
5 flag_gt_zero result[5] 0.00021956
6 result[1] result[5] 0.000230979
7 result[3] result[5] 1.32141e-05
*RES
1 *182:X result[5] 6.1581 
*END

*D_NET *12 0.000786576
*CONN
*P result[6] O
*I *183:X O *D sky130_fd_sc_hd__buf_2
*CAP
1 result[6] 0.000283288
2 *183:X 0.000283288
3 result[2] result[6] 0.000220001
*RES
1 *183:X result[6] 9.84 
*END

*D_NET *13 0.000322485
*CONN
*I *163:RESET_B I *D sky130_fd_sc_hd__dfrtp_1
*I *160:Y O *D sky130_fd_sc_hd__inv_2
*CAP
1 *163:RESET_B 0.000115036
2 *160:Y 0.000115036
3 *163:RESET_B *161:A 4.43871e-06
4 *163:RESET_B *31:10 8.7974e-05
*RES
1 *160:Y *163:RESET_B 7.94 
*END

*D_NET *14 0.000850865
*CONN
*I *164:RESET_B I *D sky130_fd_sc_hd__dfrtp_1
*I *161:Y O *D sky130_fd_sc_hd__inv_2
*CAP
1 *164:RESET_B 0.00028777
2 *161:Y 0.00028777
3 *164:RESET_B *151:A1 0.000113007
4 *164:RESET_B *163:D 0.000162318
*RES
1 *161:Y *164:RESET_B 10.01 
*END

*D_NET *15 0.000157892
*CONN
*I *165:RESET_B I *D sky130_fd_sc_hd__dfrtp_1
*I *162:Y O *D sky130_fd_sc_hd__inv_2
*CAP
1 *165:RESET_B 7.8946e-05
2 *162:Y 7.8946e-05
*RES
1 *162:Y *165:RESET_B 6.725 
*END

*D_NET *16 0.00143343
*CONN
*I *152:A I *D sky130_fd_sc_hd__or2_1
*I *149:A I *D sky130_fd_sc_hd__or2_1
*I *159:A I *D sky130_fd_sc_hd__nor2_1
*I *146:Y O *D sky130_fd_sc_hd__inv_2
*CAP
1 *152:A 8.51001e-05
2 *149:A 0
3 *159:A 0
4 *146:Y 0.000240392
5 *16:19 0.000257463
6 *16:10 0.000412755
7 *152:A *150:A 4.99619e-05
8 *152:A *152:B 8.65961e-05
9 *152:A *177:A 2.75229e-05
10 *152:A *35:14 3.518e-05
11 *16:10 *147:B 0
12 *16:10 *152:B 0
13 *16:10 *158:B 0
14 *16:19 *159:B 0.000164874
15 *16:19 *165:D 2.75229e-05
16 *16:19 *35:14 4.60584e-05
*RES
1 *146:Y *16:10 9.275 
2 *16:10 *159:A 1.6 
3 *16:10 *16:19 3.225 
4 *16:19 *149:A 1.6 
5 *16:19 *152:A 3.43 
*END

*D_NET *17 0.000140624
*CONN
*I *148:A I *D sky130_fd_sc_hd__buf_1
*I *147:Y O *D sky130_fd_sc_hd__nand2b_1
*CAP
1 *148:A 4.61688e-05
2 *147:Y 4.61688e-05
3 *148:A *30:29 4.82863e-05
*RES
1 *147:Y *148:A 3.995 
*END

*D_NET *18 0.000304828
*CONN
*I *150:A I *D sky130_fd_sc_hd__clkbuf_1
*I *149:X O *D sky130_fd_sc_hd__or2_1
*CAP
1 *150:A 0.000127433
2 *149:X 0.000127433
3 *150:A *182:A 0
4 *152:A *150:A 4.99619e-05
*RES
1 *149:X *150:A 9.03 
*END

*D_NET *19 0.000401378
*CONN
*I *153:A I *D sky130_fd_sc_hd__clkbuf_1
*I *152:X O *D sky130_fd_sc_hd__or2_1
*CAP
1 *153:A 0.000149282
2 *152:X 0.000149282
3 *153:A *152:B 0
4 *153:A *180:A 7.4027e-05
5 *153:A *35:10 2.87867e-05
*RES
1 *152:X *153:A 9.975 
*END

*D_NET *20 0.000192876
*CONN
*I *155:A I *D sky130_fd_sc_hd__clkbuf_1
*I *154:X O *D sky130_fd_sc_hd__or2b_1
*CAP
1 *155:A 9.64378e-05
2 *154:X 9.64378e-05
3 *155:A *154:B_N 0
*RES
1 *154:X *155:A 4.7 
*END

*D_NET *21 0.000834655
*CONN
*I *158:B I *D sky130_fd_sc_hd__nor2_1
*I *157:Y O *D sky130_fd_sc_hd__xnor2_1
*CAP
1 *158:B 0.000268124
2 *157:Y 0.000268124
3 *158:B *156:B 0.000170543
4 *158:B *28:22 0.000122331
5 *158:B *32:10 5.53249e-06
6 *16:10 *158:B 0
*RES
1 *157:Y *158:B 12.015 
*END

*D_NET *22 0.00211299
*CONN
*I *170:A I *D sky130_fd_sc_hd__clkbuf_16
*I *171:A I *D sky130_fd_sc_hd__clkbuf_16
*I *169:X O *D sky130_fd_sc_hd__clkbuf_16
*CAP
1 *170:A 0.000213331
2 *171:A 0.000312571
3 *169:X 0.000250112
4 *22:10 0.000776014
5 *170:A *165:CLK 9.52646e-05
6 *170:A *165:D 7.35729e-05
7 *171:A *163:D 0.000272485
8 *171:A *172:A 0.000113805
9 *171:A *28:10 5.83121e-06
10 *171:A *31:10 0
11 *22:10 *31:10 0
*RES
1 *169:X *22:10 7.215 
2 *22:10 *171:A 9.81 
3 *22:10 *170:A 7.155 
*END

*D_NET *23 0.00113629
*CONN
*I *165:CLK I *D sky130_fd_sc_hd__dfrtp_1
*I *163:CLK I *D sky130_fd_sc_hd__dfrtp_1
*I *170:X O *D sky130_fd_sc_hd__clkbuf_16
*CAP
1 *165:CLK 0.000415029
2 *163:CLK 0.000105485
3 *170:X 0
4 *23:4 0.000520513
5 *170:A *165:CLK 9.52646e-05
6 *175:A *163:CLK 0
*RES
1 *170:X *23:4 1.6 
2 *23:4 *163:CLK 7.235 
3 *23:4 *165:CLK 8.275 
*END

*D_NET *24 0.0017579
*CONN
*I *164:CLK I *D sky130_fd_sc_hd__dfrtp_1
*I *172:A I *D sky130_fd_sc_hd__clkbuf_4
*I *171:X O *D sky130_fd_sc_hd__clkbuf_16
*CAP
1 *164:CLK 5.82755e-05
2 *172:A 0.000344381
3 *171:X 0.000218485
4 *24:6 0.000621141
5 *164:CLK *151:B1_N 6.28687e-05
6 *164:CLK *164:D 0.00011379
7 *172:A *30:23 4.80285e-05
8 *24:6 *30:23 0.000177127
9 *171:A *172:A 0.000113805
*RES
1 *171:X *24:6 4.465 
2 *24:6 *172:A 5.86 
3 *24:6 *164:CLK 6.98 
*END

*D_NET *25 0.00242812
*CONN
*I *163:D I *D sky130_fd_sc_hd__dfrtp_1
*I *156:Y O *D sky130_fd_sc_hd__nor2_1
*CAP
1 *163:D 0.000919914
2 *156:Y 0.000919914
3 *163:D *151:A2 0
4 *163:D *151:B1_N 0
5 *163:D *156:A 7.4027e-05
6 *163:D *28:10 7.94582e-05
7 *164:RESET_B *163:D 0.000162318
8 *171:A *163:D 0.000272485
*RES
1 *156:Y *163:D 23.235 
*END

*D_NET *26 0.00123527
*CONN
*I *164:D I *D sky130_fd_sc_hd__dfrtp_1
*I *158:Y O *D sky130_fd_sc_hd__nor2_1
*CAP
1 *164:D 0.000247222
2 *158:Y 0.000247222
3 *164:D *151:B1_N 2.54779e-05
4 *164:D *156:B 0.000310417
5 *164:D *165:D 6.71882e-05
6 *164:D *173:A 2.97004e-06
7 *164:D *28:22 7.12665e-05
8 *164:D *29:21 9.45966e-05
9 *164:D *30:10 5.51158e-05
10 *164:CLK *164:D 0.00011379
*RES
1 *158:Y *164:D 13.5 
*END

*D_NET *27 0.00153911
*CONN
*I *165:D I *D sky130_fd_sc_hd__dfrtp_1
*I *159:Y O *D sky130_fd_sc_hd__nor2_1
*CAP
1 *165:D 0.000671992
2 *159:Y 0.000671992
3 *165:D *30:8 2.68464e-05
4 *164:D *165:D 6.71882e-05
5 *170:A *165:D 7.35729e-05
6 *16:19 *165:D 2.75229e-05
*RES
1 *159:Y *165:D 13.655 
*END

*D_NET *28 0.00406677
*CONN
*I *151:A1 I *D sky130_fd_sc_hd__o21bai_1
*I *174:A I *D sky130_fd_sc_hd__dlygate4sd3_1
*I *154:B_N I *D sky130_fd_sc_hd__or2b_1
*I *147:B I *D sky130_fd_sc_hd__nand2b_1
*I *157:A I *D sky130_fd_sc_hd__xnor2_1
*I *163:Q O *D sky130_fd_sc_hd__dfrtp_1
*CAP
1 *151:A1 0.000172871
2 *174:A 0
3 *154:B_N 0.000127576
4 *147:B 0.000126679
5 *157:A 1.77753e-05
6 *163:Q 0.000188901
7 *28:61 0.00037428
8 *28:31 0.000480538
9 *28:22 0.000899587
10 *28:10 0.00104584
11 *147:B *154:A 0
12 *147:B *30:29 1.12643e-05
13 *151:A1 *156:A 1.77665e-05
14 *154:B_N *154:A 2.65814e-06
15 *157:A *146:A 0
16 *28:10 *31:10 0
17 *28:22 *146:A 3.00381e-05
18 *28:22 *29:6 4.77629e-05
19 *28:22 *29:21 3.92204e-05
20 *28:22 *31:10 0
21 *28:31 *146:A 9.21168e-05
22 *28:61 *161:A 0
23 *28:61 *31:10 0
24 *155:A *154:B_N 0
25 *158:B *28:22 0.000122331
26 *163:D *28:10 7.94582e-05
27 *164:D *28:22 7.12665e-05
28 *164:RESET_B *151:A1 0.000113007
29 *171:A *28:10 5.83121e-06
30 *16:10 *147:B 0
*RES
1 *163:Q *28:10 6.1725 
2 *28:10 *28:22 10.8425 
3 *28:22 *157:A 1.96 
4 *28:22 *28:31 3.555 
5 *28:31 *147:B 7.34375 
6 *28:31 *154:B_N 3.445 
7 *28:10 *28:61 5.3375 
8 *28:61 *174:A 1.6 
9 *28:61 *151:A1 4.825 
*END

*D_NET *29 0.0022154
*CONN
*I *146:A I *D sky130_fd_sc_hd__inv_2
*I *157:B I *D sky130_fd_sc_hd__xnor2_1
*I *151:A2 I *D sky130_fd_sc_hd__o21bai_1
*I *164:Q O *D sky130_fd_sc_hd__dfrtp_1
*CAP
1 *146:A 9.39654e-05
2 *157:B 0
3 *151:A2 0.000105926
4 *164:Q 0.000457434
5 *29:21 0.000380961
6 *29:6 0.000850356
7 *151:A2 *151:B1_N 2.30184e-05
8 *157:A *146:A 0
9 *163:D *151:A2 0
10 *164:D *29:21 9.45966e-05
11 *28:22 *146:A 3.00381e-05
12 *28:22 *29:6 4.77629e-05
13 *28:22 *29:21 3.92204e-05
14 *28:31 *146:A 9.21168e-05
*RES
1 *164:Q *29:6 6.535 
2 *29:6 *151:A2 7.235 
3 *29:6 *29:21 3.825 
4 *29:21 *157:B 1.6 
5 *29:21 *146:A 3.79 
*END

*D_NET *30 0.00372183
*CONN
*I *173:A I *D sky130_fd_sc_hd__dlygate4sd3_1
*I *147:A_N I *D sky130_fd_sc_hd__nand2b_1
*I *152:B I *D sky130_fd_sc_hd__or2_1
*I *154:A I *D sky130_fd_sc_hd__or2b_1
*I *151:B1_N I *D sky130_fd_sc_hd__o21bai_1
*I *165:Q O *D sky130_fd_sc_hd__dfrtp_1
*CAP
1 *173:A 0.000336326
2 *147:A_N 0
3 *152:B 0.00015937
4 *154:A 0.000209458
5 *151:B1_N 0.000182867
6 *165:Q 3.62863e-05
7 *30:29 0.000515261
8 *30:23 0.000465073
9 *30:10 0.000581115
10 *30:8 0.00045222
11 *151:B1_N *156:B 0
12 *152:B *35:10 4.70343e-05
13 *152:B *35:14 8.65961e-05
14 *154:A *181:A 0
15 *173:A *156:B 0
16 *173:A *32:10 7.99634e-05
17 *147:B *154:A 0
18 *147:B *30:29 1.12643e-05
19 *148:A *30:29 4.82863e-05
20 *151:A2 *151:B1_N 2.30184e-05
21 *152:A *152:B 8.65961e-05
22 *153:A *152:B 0
23 *154:B_N *154:A 2.65814e-06
24 *163:D *151:B1_N 0
25 *164:CLK *151:B1_N 6.28687e-05
26 *164:D *151:B1_N 2.54779e-05
27 *164:D *173:A 2.97004e-06
28 *164:D *30:10 5.51158e-05
29 *165:D *30:8 2.68464e-05
30 *172:A *30:23 4.80285e-05
31 *16:10 *152:B 0
32 *24:6 *30:23 0.000177127
*RES
1 *165:Q *30:8 4.05 
2 *30:8 *30:10 1.635 
3 *30:10 *151:B1_N 7.02 
4 *30:10 *30:23 7.625 
5 *30:23 *30:29 4.19 
6 *30:29 *154:A 6.45 
7 *30:29 *152:B 7.05 
8 *30:23 *147:A_N 1.6 
9 *30:8 *173:A 9.33 
*END

*D_NET *31 0.00269237
*CONN
*I *162:A I *D sky130_fd_sc_hd__inv_2
*I *160:A I *D sky130_fd_sc_hd__inv_2
*I *161:A I *D sky130_fd_sc_hd__inv_2
*I *175:X O *D sky130_fd_sc_hd__dlymetal6s2s_1
*CAP
1 *162:A 0.000241939
2 *160:A 0
3 *161:A 0.00026725
4 *175:X 0.000451706
5 *31:10 0.000606335
6 *31:6 0.00103273
7 *163:RESET_B *161:A 4.43871e-06
8 *163:RESET_B *31:10 8.7974e-05
9 *169:A *31:10 0
10 *171:A *31:10 0
11 *22:10 *31:10 0
12 *28:10 *31:10 0
13 *28:22 *31:10 0
14 *28:61 *161:A 0
15 *28:61 *31:10 0
*RES
1 *175:X *31:6 8.26 
2 *31:6 *31:10 7.97 
3 *31:10 *161:A 7.83 
4 *31:10 *160:A 3.6 
5 *31:6 *162:A 5.155 
*END

*D_NET *32 0.0023819
*CONN
*I *158:A I *D sky130_fd_sc_hd__nor2_1
*I *156:B I *D sky130_fd_sc_hd__nor2_1
*I *173:X O *D sky130_fd_sc_hd__dlygate4sd3_1
*CAP
1 *158:A 0
2 *156:B 0.000746567
3 *173:X 0.000136043
4 *32:10 0.00088261
5 *156:B *41:12 5.02217e-05
6 *151:B1_N *156:B 0
7 *158:B *156:B 0.000170543
8 *158:B *32:10 5.53249e-06
9 *164:D *156:B 0.000310417
10 *173:A *156:B 0
11 *173:A *32:10 7.99634e-05
*RES
1 *173:X *32:10 5.775 
2 *32:10 *156:B 16.56 
3 *32:10 *158:A 3.6 
*END

*D_NET *33 0.000332252
*CONN
*I *156:A I *D sky130_fd_sc_hd__nor2_1
*I *174:X O *D sky130_fd_sc_hd__dlygate4sd3_1
*CAP
1 *156:A 0.000120229
2 *174:X 0.000120229
3 *156:A *41:12 0
4 *151:A1 *156:A 1.77665e-05
5 *163:D *156:A 7.4027e-05
*RES
1 *174:X *156:A 9.03 
*END

*D_NET *34 0.00113439
*CONN
*I *176:A I *D sky130_fd_sc_hd__buf_2
*I *168:A I *D sky130_fd_sc_hd__clkbuf_1
*I *166:A I *D sky130_fd_sc_hd__clkbuf_1
*I *150:X O *D sky130_fd_sc_hd__clkbuf_1
*CAP
1 *176:A 3.01812e-05
2 *168:A 6.1727e-05
3 *166:A 0.000198686
4 *150:X 0
5 *34:17 0.000197383
6 *34:4 0.00030416
7 *166:A *178:A 1.32843e-05
8 *168:A *180:A 7.63125e-05
9 *176:A *178:A 1.4399e-05
10 *34:17 *178:A 4.71333e-05
11 *34:17 *180:A 4.66108e-05
12 result[3] *168:A 5.8807e-05
13 result[3] *176:A 3.74161e-05
14 result[3] *34:17 4.82863e-05
*RES
1 *150:X *34:4 1.6 
2 *34:4 *166:A 4.045 
3 *34:4 *34:17 2.19 
4 *34:17 *168:A 7.235 
5 *34:17 *176:A 2.41 
*END

*D_NET *35 0.00127854
*CONN
*I *177:A I *D sky130_fd_sc_hd__buf_2
*I *149:B I *D sky130_fd_sc_hd__or2_1
*I *159:B I *D sky130_fd_sc_hd__nor2_1
*I *148:X O *D sky130_fd_sc_hd__buf_1
*CAP
1 *177:A 0.00017866
2 *149:B 0
3 *159:B 5.35167e-05
4 *148:X 5.55949e-05
5 *35:14 0.000177801
6 *35:10 0.000358539
7 *177:A *182:A 1.83756e-05
8 *35:10 *180:A 0
9 *152:A *177:A 2.75229e-05
10 *152:A *35:14 3.518e-05
11 *152:B *35:10 4.70343e-05
12 *152:B *35:14 8.65961e-05
13 *153:A *35:10 2.87867e-05
14 *16:19 *159:B 0.000164874
15 *16:19 *35:14 4.60584e-05
*RES
1 *148:X *35:10 6.98 
2 *35:10 *35:14 2.535 
3 *35:14 *159:B 3.085 
4 *35:14 *149:B 1.6 
5 *35:10 *177:A 4.48 
*END

*D_NET *36 0.00086099
*CONN
*I *178:A I *D sky130_fd_sc_hd__buf_2
*I *166:X O *D sky130_fd_sc_hd__clkbuf_1
*CAP
1 *178:A 0.000360079
2 *166:X 0.000360079
3 *178:A *180:A 1.56428e-05
4 *178:A *182:A 0
5 result[1] *178:A 1.17114e-05
6 result[5] *178:A 3.86607e-05
7 *166:A *178:A 1.32843e-05
8 *176:A *178:A 1.4399e-05
9 *34:17 *178:A 4.71333e-05
*RES
1 *166:X *178:A 12.045 
*END

*D_NET *37 0.00015708
*CONN
*I *179:A I *D sky130_fd_sc_hd__buf_2
*I *167:X O *D sky130_fd_sc_hd__clkbuf_1
*CAP
1 *179:A 5.08514e-05
2 *167:X 5.08514e-05
3 *179:A *167:A 5.53774e-05
*RES
1 *167:X *179:A 4.265 
*END

*D_NET *38 0.000674239
*CONN
*I *180:A I *D sky130_fd_sc_hd__buf_2
*I *153:X O *D sky130_fd_sc_hd__clkbuf_1
*CAP
1 *180:A 0.000173577
2 *153:X 0.000173577
3 *180:A *182:A 0.000114492
4 result[0] *180:A 0
5 *153:A *180:A 7.4027e-05
6 *168:A *180:A 7.63125e-05
7 *178:A *180:A 1.56428e-05
8 *34:17 *180:A 4.66108e-05
9 *35:10 *180:A 0
*RES
1 *153:X *180:A 11.07 
*END

*D_NET *39 0.000196882
*CONN
*I *181:A I *D sky130_fd_sc_hd__buf_2
*I *155:X O *D sky130_fd_sc_hd__clkbuf_1
*CAP
1 *181:A 7.81732e-05
2 *155:X 7.81732e-05
3 result[4] *181:A 4.05358e-05
4 *154:A *181:A 0
*RES
1 *155:X *181:A 8.58 
*END

*D_NET *40 0.000645999
*CONN
*I *182:A I *D sky130_fd_sc_hd__buf_2
*I *168:X O *D sky130_fd_sc_hd__clkbuf_1
*CAP
1 *182:A 0.000227549
2 *168:X 0.000227549
3 result[5] *182:A 5.80335e-05
4 *150:A *182:A 0
5 *177:A *182:A 1.83756e-05
6 *178:A *182:A 0
7 *180:A *182:A 0.000114492
*RES
1 *168:X *182:A 11.325 
*END

*D_NET *41 0.00125242
*CONN
*I *183:A I *D sky130_fd_sc_hd__buf_2
*I *167:A I *D sky130_fd_sc_hd__clkbuf_1
*I *151:Y O *D sky130_fd_sc_hd__o21bai_1
*CAP
1 *183:A 0
2 *167:A 0.000176758
3 *151:Y 0.000353355
4 *41:12 0.000530114
5 result[2] *167:A 8.65961e-05
6 *156:A *41:12 0
7 *156:B *41:12 5.02217e-05
8 *179:A *167:A 5.53774e-05
*RES
1 *151:Y *41:12 10.76 
2 *41:12 *167:A 4.84 
3 *41:12 *183:A 1.6 
*END
