*SPEF "ieee 1481-1999"
*DESIGN "top"
*DATE "18:03:16 Sunday June 08, 2025"
*VENDOR "The OpenROAD Project"
*PROGRAM "OpenROAD"
*VERSION "v2.0-16235-gedf00dff9"
*DESIGN_FLOW "NAME_SCOPE LOCAL" "PIN_CAP NONE"
*DIVIDER /
*DELIMITER :
*BUS_DELIMITER []
*T_UNIT 1 NS
*C_UNIT 1 PF
*R_UNIT 1 OHM
*L_UNIT 1 HENRY

*NAME_MAP
*3 clk
*4 net8
*5 reset
*6 result[0]
*7 result[1]
*8 result[2]
*9 net9
*10 result[4]
*11 result[5]
*12 result[6]
*13 _00_
*14 _01_
*15 _02_
*16 _03_
*17 clknet_0_clk
*18 clknet_1_0__leaf_clk
*19 clknet_1_1__leaf_clk
*20 controller_inst\.nstate\[0\]
*21 controller_inst\.nstate\[1\]
*22 controller_inst\.pstate\[0\]
*23 controller_inst\.pstate\[1\]
*24 net1
*25 net10
*26 net11
*27 net2
*28 net3
*29 net4
*30 net5
*31 net6
*32 net7
*33 FILLER_0_15
*34 FILLER_0_27
*35 FILLER_0_29
*36 FILLER_0_3
*37 FILLER_0_37
*38 FILLER_0_47
*39 FILLER_0_55
*40 FILLER_0_57
*41 FILLER_0_69
*42 FILLER_1_15
*43 FILLER_1_27
*44 FILLER_1_3
*45 FILLER_1_39
*46 FILLER_1_51
*47 FILLER_1_55
*48 FILLER_1_57
*49 FILLER_1_63
*50 FILLER_2_15
*51 FILLER_2_27
*52 FILLER_2_29
*53 FILLER_2_3
*54 FILLER_2_41
*55 FILLER_2_47
*56 FILLER_2_55
*57 FILLER_2_60
*58 FILLER_3_15
*59 FILLER_3_27
*60 FILLER_3_3
*61 FILLER_3_39
*62 FILLER_3_47
*63 FILLER_4_15
*64 FILLER_4_27
*65 FILLER_4_29
*66 FILLER_4_3
*67 FILLER_4_41
*68 FILLER_4_79
*69 FILLER_5_15
*70 FILLER_5_27
*71 FILLER_5_3
*72 FILLER_5_39
*73 FILLER_5_51
*74 FILLER_5_55
*75 FILLER_6_15
*76 FILLER_6_27
*77 FILLER_6_29
*78 FILLER_6_3
*79 FILLER_6_55
*80 FILLER_6_80
*81 FILLER_7_15
*82 FILLER_7_27
*83 FILLER_7_3
*84 FILLER_7_39
*85 FILLER_7_51
*86 FILLER_7_55
*87 FILLER_7_57
*88 FILLER_7_64
*89 FILLER_7_71
*90 FILLER_8_15
*91 FILLER_8_27
*92 FILLER_8_29
*93 FILLER_8_3
*94 FILLER_8_41
*95 FILLER_8_53
*96 FILLER_8_65
*97 FILLER_8_77
*98 FILLER_9_15
*99 FILLER_9_27
*100 FILLER_9_29
*101 FILLER_9_3
*102 FILLER_9_41
*103 FILLER_9_53
*104 FILLER_9_57
*105 FILLER_9_69
*106 PHY_EDGE_ROW_0_Left_10
*107 PHY_EDGE_ROW_0_Right_0
*108 PHY_EDGE_ROW_1_Left_11
*109 PHY_EDGE_ROW_1_Right_1
*110 PHY_EDGE_ROW_2_Left_12
*111 PHY_EDGE_ROW_2_Right_2
*112 PHY_EDGE_ROW_3_Left_13
*113 PHY_EDGE_ROW_3_Right_3
*114 PHY_EDGE_ROW_4_Left_14
*115 PHY_EDGE_ROW_4_Right_4
*116 PHY_EDGE_ROW_5_Left_15
*117 PHY_EDGE_ROW_5_Right_5
*118 PHY_EDGE_ROW_6_Left_16
*119 PHY_EDGE_ROW_6_Right_6
*120 PHY_EDGE_ROW_7_Left_17
*121 PHY_EDGE_ROW_7_Right_7
*122 PHY_EDGE_ROW_8_Left_18
*123 PHY_EDGE_ROW_8_Right_8
*124 PHY_EDGE_ROW_9_Left_19
*125 PHY_EDGE_ROW_9_Right_9
*126 TAP_TAPCELL_ROW_0_20
*127 TAP_TAPCELL_ROW_0_21
*128 TAP_TAPCELL_ROW_1_22
*129 TAP_TAPCELL_ROW_2_23
*130 TAP_TAPCELL_ROW_3_24
*131 TAP_TAPCELL_ROW_4_25
*132 TAP_TAPCELL_ROW_5_26
*133 TAP_TAPCELL_ROW_6_27
*134 TAP_TAPCELL_ROW_7_28
*135 TAP_TAPCELL_ROW_8_29
*136 TAP_TAPCELL_ROW_9_30
*137 TAP_TAPCELL_ROW_9_31
*138 _04_
*139 _05_
*140 _06_
*141 _07_
*142 _08_
*143 _09_
*144 _10_
*145 _11_
*146 _12_
*147 _13_
*148 _14_
*149 _15_
*150 _18_
*151 _19_
*152 clkbuf_0_clk
*153 clkbuf_1_0__f_clk
*154 clkbuf_1_1__f_clk
*155 hold1
*156 hold2
*157 input1
*158 output2
*159 output3
*160 output4
*161 output5
*162 output6
*163 output7
*164 top_8
*165 top_9

*PORTS
clk I
flag_gt_zero O
reset I
result[0] O
result[1] O
result[2] O
result[3] O
result[4] O
result[5] O
result[6] O

*D_NET *3 0.00386836
*CONN
*P clk I
*I *152:A I *D sky130_fd_sc_hd__clkbuf_16
*CAP
1 clk 0.00192198
2 *152:A 0
3 *3:15 0.00192198
4 *3:15 *18:10 0
5 *3:15 *23:17 2.43996e-05
*RES
1 clk *3:15 29.3068 
2 *3:15 *152:A 23 
*END

*D_NET *4 0.00118863
*CONN
*P flag_gt_zero O
*I *164:HI O *D sky130_fd_sc_hd__conb_1
*CAP
1 flag_gt_zero 0.000381813
2 *164:HI 0.000381813
3 flag_gt_zero result[2] 0.000236246
4 flag_gt_zero result[6] 1.38508e-05
5 flag_gt_zero *22:27 5.02657e-05
6 flag_gt_zero *29:10 0.000124641
*RES
1 *164:HI flag_gt_zero 49.5353 
*END

*D_NET *5 0.000561598
*CONN
*P reset I
*I *157:A I *D sky130_fd_sc_hd__buf_1
*CAP
1 reset 0.000155653
2 *157:A 0.000155653
3 *157:A result[1] 0.000224949
4 *157:A *10:8 2.5343e-05
*RES
1 reset *157:A 47.0789 
*END

*D_NET *6 0.00168679
*CONN
*P result[0] O
*I *158:X O *D sky130_fd_sc_hd__buf_2
*CAP
1 result[0] 7.80865e-05
2 *158:X 0.000402659
3 *6:10 0.000480746
4 result[0] result[1] 0.00021513
5 result[0] result[4] 0.000228328
6 *6:10 result[2] 7.20089e-05
7 *6:10 result[6] 2.57016e-05
8 *6:10 *10:8 0.000113702
9 *6:10 *22:10 0
10 *6:10 *29:10 7.04273e-05
*RES
1 *158:X *6:10 45.9854 
2 *6:10 result[0] 8.75787 
*END

*D_NET *7 0.00210927
*CONN
*P result[1] O
*I *159:X O *D sky130_fd_sc_hd__buf_2
*CAP
1 result[1] 0.000151869
2 *159:X 0.000337534
3 *7:10 0.000489403
4 result[1] result[4] 1.00317e-05
5 *7:10 *10:8 0.000498719
6 *7:10 *15:8 0
7 *7:10 *19:8 0.000140949
8 *7:10 *24:10 0
9 *7:10 *30:14 4.06849e-05
10 result[0] result[1] 0.00021513
11 *157:A result[1] 0.000224949
*RES
1 *159:X *7:10 46.2339 
2 *7:10 result[1] 8.9296 
*END

*D_NET *8 0.000908963
*CONN
*P result[2] O
*I *160:X O *D sky130_fd_sc_hd__buf_2
*CAP
1 result[2] 0.000137991
2 *160:X 0.000137991
3 result[2] result[6] 0.000324726
4 flag_gt_zero result[2] 0.000236246
5 *6:10 result[2] 7.20089e-05
*RES
1 *160:X result[2] 47.8691 
*END

*D_NET *9 0.000873642
*CONN
*P result[3] O
*I *165:HI O *D sky130_fd_sc_hd__conb_1
*CAP
1 result[3] 0.000425528
2 *165:HI 0.000425528
3 result[3] result[5] 2.25854e-05
4 result[3] *11:16 0
*RES
1 *165:HI result[3] 46.6171 
*END

*D_NET *10 0.00208137
*CONN
*P result[4] O
*I *161:X O *D sky130_fd_sc_hd__buf_2
*CAP
1 result[4] 0.000106419
2 *161:X 0.000378082
3 *10:8 0.000484501
4 result[4] result[6] 0.000236246
5 *10:8 *15:8 0
6 *10:8 *22:10 0
7 result[0] result[4] 0.000228328
8 result[1] result[4] 1.00317e-05
9 *157:A *10:8 2.5343e-05
10 *6:10 *10:8 0.000113702
11 *7:10 *10:8 0.000498719
*RES
1 *161:X *10:8 47.4768 
2 *10:8 result[4] 8.84373 
*END

*D_NET *11 0.00104314
*CONN
*P result[5] O
*I *162:X O *D sky130_fd_sc_hd__buf_2
*CAP
1 result[5] 1.14492e-05
2 *162:X 0.000498829
3 *11:16 0.000510278
4 result[3] result[5] 2.25854e-05
5 result[3] *11:16 0
*RES
1 *162:X *11:16 49.2582 
2 *11:16 result[5] 0.776786 
*END

*D_NET *12 0.00107574
*CONN
*P result[6] O
*I *163:X O *D sky130_fd_sc_hd__buf_2
*CAP
1 result[6] 0.000172502
2 *163:X 0.000172502
3 result[6] *29:10 0.000130212
4 flag_gt_zero result[6] 1.38508e-05
5 result[2] result[6] 0.000324726
6 result[4] result[6] 0.000236246
7 *6:10 result[6] 2.57016e-05
*RES
1 *163:X result[6] 48.6592 
*END

*D_NET *13 0.00129413
*CONN
*I *148:RESET_B I *D sky130_fd_sc_hd__dfrtp_4
*I *146:Y O *D sky130_fd_sc_hd__inv_2
*CAP
1 *148:RESET_B 0.000100392
2 *146:Y 0.000228371
3 *13:8 0.000328763
4 *148:RESET_B *25:6 5.17905e-05
5 *13:8 *14:10 0.000203929
6 *13:8 *15:8 8.26312e-05
7 *13:8 *24:10 0.000298257
8 *13:8 *30:14 0
*RES
1 *146:Y *13:8 45.1879 
2 *13:8 *148:RESET_B 16.9782 
*END

*D_NET *14 0.000817359
*CONN
*I *149:RESET_B I *D sky130_fd_sc_hd__dfrtp_2
*I *147:Y O *D sky130_fd_sc_hd__inv_2
*CAP
1 *149:RESET_B 0
2 *147:Y 0.000210011
3 *14:10 0.000210011
4 *14:10 *151:A 5.67058e-05
5 *14:10 *30:14 0.000136701
6 *13:8 *14:10 0.000203929
*RES
1 *147:Y *14:10 44.0486 
2 *14:10 *149:RESET_B 15 
*END

*D_NET *15 0.00209066
*CONN
*I *140:A I *D sky130_fd_sc_hd__clkbuf_1
*I *139:Y O *D sky130_fd_sc_hd__nand2b_1
*CAP
1 *140:A 0.000295949
2 *139:Y 0.000514996
3 *15:8 0.000810945
4 *140:A *21:10 0.000279374
5 *15:8 *150:A 0
6 *15:8 *21:10 4.23714e-05
7 *15:8 *22:10 0
8 *15:8 *24:10 6.4393e-05
9 *15:8 *30:14 0
10 *7:10 *15:8 0
11 *10:8 *15:8 0
12 *13:8 *15:8 8.26312e-05
*RES
1 *139:Y *15:8 48.3571 
2 *15:8 *140:A 44.3593 
*END

*D_NET *16 0.000169219
*CONN
*I *142:A I *D sky130_fd_sc_hd__clkbuf_1
*I *141:Y O *D sky130_fd_sc_hd__nand2b_1
*CAP
1 *142:A 4.55021e-05
2 *141:Y 4.55021e-05
3 *142:A *150:A 2.32101e-05
4 *142:A *22:48 5.50049e-05
*RES
1 *141:Y *142:A 47.0979 
*END

*D_NET *17 0.00278363
*CONN
*I *154:A I *D sky130_fd_sc_hd__clkbuf_16
*I *153:A I *D sky130_fd_sc_hd__clkbuf_16
*I *152:X O *D sky130_fd_sc_hd__clkbuf_16
*CAP
1 *154:A 0
2 *153:A 0
3 *152:X 0.000389677
4 *17:25 0.000305717
5 *17:14 0.00037918
6 *17:6 0.00107457
7 *17:14 *18:10 0
8 *17:14 *23:17 0
9 *17:25 *23:17 0.000263986
10 *17:25 *25:25 0
11 *17:25 *30:14 0.000370492
*RES
1 *152:X *17:6 27.9093 
2 *17:6 *17:14 35.0336 
3 *17:14 *153:A 23 
4 *17:6 *17:25 39.6529 
5 *17:25 *154:A 23 
*END

*D_NET *18 0.00132466
*CONN
*I *148:CLK I *D sky130_fd_sc_hd__dfrtp_4
*I *153:X O *D sky130_fd_sc_hd__clkbuf_16
*CAP
1 *148:CLK 0
2 *153:X 0.000652987
3 *18:10 0.000652987
4 *18:10 *25:25 1.86869e-05
5 *3:15 *18:10 0
6 *17:14 *18:10 0
*RES
1 *153:X *18:10 46.6793 
2 *18:10 *148:CLK 38 
*END

*D_NET *19 0.00031649
*CONN
*I *149:CLK I *D sky130_fd_sc_hd__dfrtp_2
*I *154:X O *D sky130_fd_sc_hd__clkbuf_16
*CAP
1 *149:CLK 0
2 *154:X 6.65847e-05
3 *19:8 6.65847e-05
4 *19:8 *21:10 4.23714e-05
5 *7:10 *19:8 0.000140949
*RES
1 *154:X *19:8 39.9057 
2 *19:8 *149:CLK 38 
*END

*D_NET *20 0.000320357
*CONN
*I *148:D I *D sky130_fd_sc_hd__dfrtp_4
*I *144:Y O *D sky130_fd_sc_hd__inv_2
*CAP
1 *148:D 0.000130427
2 *144:Y 0.000130427
3 *148:D *144:A 5.95028e-05
*RES
1 *144:Y *148:D 48.5271 
*END

*D_NET *21 0.00197146
*CONN
*I *149:D I *D sky130_fd_sc_hd__dfrtp_2
*I *145:X O *D sky130_fd_sc_hd__xor2_1
*CAP
1 *149:D 0
2 *145:X 0.000803674
3 *21:10 0.000803674
4 *140:A *21:10 0.000279374
5 *15:8 *21:10 4.23714e-05
6 *19:8 *21:10 4.23714e-05
*RES
1 *145:X *21:10 49.5793 
2 *21:10 *149:D 38 
*END

*D_NET *22 0.00331845
*CONN
*I *155:A I *D sky130_fd_sc_hd__dlygate4sd3_1
*I *143:B I *D sky130_fd_sc_hd__xnor2_1
*I *141:B I *D sky130_fd_sc_hd__nand2b_1
*I *138:B I *D sky130_fd_sc_hd__xnor2_1
*I *139:A_N I *D sky130_fd_sc_hd__nand2b_1
*I *148:Q O *D sky130_fd_sc_hd__dfrtp_4
*CAP
1 *155:A 5.97544e-05
2 *143:B 0
3 *141:B 0
4 *138:B 8.67988e-05
5 *139:A_N 0
6 *148:Q 0.00014268
7 *22:48 0.00022156
8 *22:29 0.000366014
9 *22:27 0.00037463
10 *22:10 0.000577098
11 *22:6 0.000462557
12 *138:B *23:26 0.000184527
13 *22:6 *25:6 2.93747e-05
14 *22:10 *29:10 0.000102365
15 *22:27 *139:B 7.34125e-05
16 *22:27 *163:A 0.000148643
17 *22:27 *29:10 1.93489e-05
18 *22:29 *139:B 5.67058e-05
19 *22:29 *23:26 8.6949e-05
20 *22:48 *141:A_N 0
21 *22:48 *150:A 0.000220756
22 flag_gt_zero *22:27 5.02657e-05
23 *142:A *22:48 5.50049e-05
24 *6:10 *22:10 0
25 *10:8 *22:10 0
26 *15:8 *22:10 0
*RES
1 *148:Q *22:6 25.5271 
2 *22:6 *22:10 20.4271 
3 *22:10 *139:A_N 38 
4 *22:10 *22:27 21.1521 
5 *22:27 *22:29 1.57429 
6 *22:29 *138:B 25.0507 
7 *22:29 *22:48 34.9818 
8 *22:48 *141:B 23 
9 *22:27 *143:B 23 
10 *22:6 *155:A 24.0979 
*END

*D_NET *23 0.00274153
*CONN
*I *141:A_N I *D sky130_fd_sc_hd__nand2b_1
*I *139:B I *D sky130_fd_sc_hd__nand2b_1
*I *143:A I *D sky130_fd_sc_hd__xnor2_1
*I *138:A I *D sky130_fd_sc_hd__xnor2_1
*I *156:A I *D sky130_fd_sc_hd__dlygate4sd3_1
*I *149:Q O *D sky130_fd_sc_hd__dfrtp_2
*CAP
1 *141:A_N 0.000172475
2 *139:B 0.000129279
3 *143:A 0
4 *138:A 0
5 *156:A 8.47456e-05
6 *149:Q 0
7 *23:26 0.000278599
8 *23:19 0.00014932
9 *23:17 0.000583517
10 *23:4 0.000495787
11 *139:B *163:A 0.000157831
12 *141:A_N *150:A 0
13 *23:17 *150:A 0
14 *23:17 *25:25 0
15 *23:17 *30:14 0
16 *138:B *23:26 0.000184527
17 *3:15 *23:17 2.43996e-05
18 *17:14 *23:17 0
19 *17:25 *23:17 0.000263986
20 *22:27 *139:B 7.34125e-05
21 *22:29 *139:B 5.67058e-05
22 *22:29 *23:26 8.6949e-05
23 *22:48 *141:A_N 0
*RES
1 *149:Q *23:4 23 
2 *23:4 *156:A 24.5743 
3 *23:4 *23:17 24.2179 
4 *23:17 *23:19 15 
5 *23:19 *138:A 23 
6 *23:19 *23:26 3.48 
7 *23:26 *143:A 23 
8 *23:26 *139:B 26.6354 
9 *23:17 *141:A_N 41.3143 
*END

*D_NET *24 0.00190018
*CONN
*I *146:A I *D sky130_fd_sc_hd__inv_2
*I *147:A I *D sky130_fd_sc_hd__inv_2
*I *157:X O *D sky130_fd_sc_hd__buf_1
*CAP
1 *146:A 0
2 *147:A 2.12203e-05
3 *157:X 0.00060474
4 *24:12 2.12203e-05
5 *24:10 0.00060474
6 *147:A *151:A 0.000141954
7 *147:A *30:14 0.000143655
8 *24:10 *30:14 0
9 *7:10 *24:10 0
10 *13:8 *24:10 0.000298257
11 *15:8 *24:10 6.4393e-05
*RES
1 *157:X *24:10 47.1557 
2 *24:10 *24:12 15 
3 *24:12 *147:A 24.5743 
4 *24:12 *146:A 23 
*END

*D_NET *25 0.00280276
*CONN
*I *145:B I *D sky130_fd_sc_hd__xor2_1
*I *144:A I *D sky130_fd_sc_hd__inv_2
*I *155:X O *D sky130_fd_sc_hd__dlygate4sd3_1
*CAP
1 *145:B 0
2 *144:A 0.000194576
3 *155:X 0.000746253
4 *25:25 0.000309936
5 *25:6 0.00125077
6 *25:25 *26:10 0.000141869
7 *148:D *144:A 5.95028e-05
8 *148:RESET_B *25:6 5.17905e-05
9 *17:25 *25:25 0
10 *18:10 *25:25 1.86869e-05
11 *22:6 *25:6 2.93747e-05
12 *23:17 *25:25 0
*RES
1 *155:X *25:6 32.6736 
2 *25:6 *144:A 26.5421 
3 *25:6 *25:25 36.4836 
4 *25:25 *145:B 23 
*END

*D_NET *26 0.000510474
*CONN
*I *145:A I *D sky130_fd_sc_hd__xor2_1
*I *156:X O *D sky130_fd_sc_hd__dlygate4sd3_1
*CAP
1 *145:A 0
2 *156:X 0.000184303
3 *26:10 0.000184303
4 *25:25 *26:10 0.000141869
*RES
1 *156:X *26:10 41.3557 
2 *26:10 *145:A 38 
*END

*D_NET *27 0.000499954
*CONN
*I *158:A I *D sky130_fd_sc_hd__buf_2
*I *150:X O *D sky130_fd_sc_hd__clkbuf_1
*CAP
1 *158:A 0
2 *150:X 0.000187051
3 *27:8 0.000187051
4 *27:8 *150:A 5.90675e-06
5 *27:8 *29:10 0.000119945
*RES
1 *150:X *27:8 27.3293 
2 *27:8 *158:A 23 
*END

*D_NET *28 0.000185137
*CONN
*I *159:A I *D sky130_fd_sc_hd__buf_2
*I *151:X O *D sky130_fd_sc_hd__clkbuf_1
*CAP
1 *159:A 5.40896e-05
2 *151:X 5.40896e-05
3 *159:A *151:A 2.02517e-05
4 *159:A *30:14 5.67058e-05
*RES
1 *151:X *159:A 47.4707 
*END

*D_NET *29 0.00159843
*CONN
*I *160:A I *D sky130_fd_sc_hd__buf_2
*I *142:X O *D sky130_fd_sc_hd__clkbuf_1
*CAP
1 *160:A 0
2 *142:X 0.000487391
3 *29:10 0.000487391
4 *29:10 *150:A 5.67058e-05
5 flag_gt_zero *29:10 0.000124641
6 result[6] *29:10 0.000130212
7 *6:10 *29:10 7.04273e-05
8 *22:10 *29:10 0.000102365
9 *22:27 *29:10 1.93489e-05
10 *27:8 *29:10 0.000119945
*RES
1 *142:X *29:10 47.6321 
2 *29:10 *160:A 38 
*END

*D_NET *30 0.00352055
*CONN
*I *150:A I *D sky130_fd_sc_hd__clkbuf_1
*I *161:A I *D sky130_fd_sc_hd__buf_2
*I *138:Y O *D sky130_fd_sc_hd__xnor2_1
*CAP
1 *150:A 0.000317515
2 *161:A 0
3 *138:Y 0
4 *30:14 0.000867296
5 *30:6 0.00118481
6 *30:14 *151:A 9.61128e-05
7 *30:14 *162:A 0
8 *30:14 *31:8 0
9 *141:A_N *150:A 0
10 *142:A *150:A 2.32101e-05
11 *147:A *30:14 0.000143655
12 *159:A *30:14 5.67058e-05
13 *7:10 *30:14 4.06849e-05
14 *13:8 *30:14 0
15 *14:10 *30:14 0.000136701
16 *15:8 *150:A 0
17 *15:8 *30:14 0
18 *17:25 *30:14 0.000370492
19 *22:48 *150:A 0.000220756
20 *23:17 *150:A 0
21 *23:17 *30:14 0
22 *24:10 *30:14 0
23 *27:8 *150:A 5.90675e-06
24 *29:10 *150:A 5.67058e-05
*RES
1 *138:Y *30:6 38 
2 *30:6 *30:14 35.8386 
3 *30:14 *161:A 23 
4 *30:6 *150:A 44.6907 
*END

*D_NET *31 0.00216116
*CONN
*I *151:A I *D sky130_fd_sc_hd__clkbuf_1
*I *162:A I *D sky130_fd_sc_hd__buf_2
*I *140:X O *D sky130_fd_sc_hd__clkbuf_1
*CAP
1 *151:A 0.000338117
2 *162:A 0.000489603
3 *140:X 9.53488e-05
4 *31:8 0.000923069
5 *147:A *151:A 0.000141954
6 *159:A *151:A 2.02517e-05
7 *14:10 *151:A 5.67058e-05
8 *30:14 *151:A 9.61128e-05
9 *30:14 *162:A 0
10 *30:14 *31:8 0
*RES
1 *140:X *31:8 39.5536 
2 *31:8 *162:A 47.0521 
3 *31:8 *151:A 44.8357 
*END

*D_NET *32 0.000561889
*CONN
*I *163:A I *D sky130_fd_sc_hd__buf_2
*I *143:Y O *D sky130_fd_sc_hd__xnor2_1
*CAP
1 *163:A 0.000127708
2 *143:Y 0.000127708
3 *139:B *163:A 0.000157831
4 *22:27 *163:A 0.000148643
*RES
1 *143:Y *163:A 49.9979 
*END
