*SPEF "ieee 1481-1999"
*DESIGN "ALU_7bit"
*DATE "17:25:40 Sunday June 08, 2025"
*VENDOR "The OpenROAD Project"
*PROGRAM "OpenROAD"
*VERSION "v2.0-16235-gedf00dff9"
*DESIGN_FLOW "NAME_SCOPE LOCAL" "PIN_CAP NONE"
*DIVIDER /
*DELIMITER :
*BUS_DELIMITER []
*T_UNIT 1 NS
*C_UNIT 1 PF
*R_UNIT 1 OHM
*L_UNIT 1 HENRY

*NAME_MAP
*1 A[0]
*2 A[1]
*3 A[2]
*4 A[3]
*5 A[4]
*6 A[5]
*7 A[6]
*8 B[0]
*9 B[1]
*10 B[2]
*11 B[3]
*12 B[4]
*13 B[5]
*14 B[6]
*15 OP
*18 ZF
*19 result[0]
*20 result[1]
*21 result[2]
*22 result[3]
*23 result[4]
*24 result[5]
*25 result[6]
*26 _00_
*27 _01_
*28 _02_
*29 _03_
*30 _04_
*31 _05_
*32 _06_
*33 _07_
*34 _08_
*35 _09_
*36 _10_
*37 _11_
*38 _12_
*39 _13_
*40 _14_
*41 _15_
*42 _16_
*43 _17_
*44 _18_
*45 _19_
*46 _20_
*47 _21_
*48 _22_
*49 _23_
*50 _24_
*51 _25_
*52 _26_
*53 _27_
*54 _28_
*55 _29_
*56 _30_
*57 _31_
*58 _32_
*59 _33_
*60 _34_
*61 _35_
*62 _36_
*63 _37_
*64 net1
*65 net10
*66 net11
*67 net12
*68 net13
*69 net14
*70 net15
*71 net16
*72 net17
*73 net18
*74 net19
*75 net2
*76 net20
*77 net21
*78 net3
*79 net4
*80 net5
*81 net6
*82 net7
*83 net8
*84 net9
*85 FILLER_0_15
*86 FILLER_0_27
*87 FILLER_0_29
*88 FILLER_0_3
*89 FILLER_0_41
*90 FILLER_0_53
*91 FILLER_0_57
*92 FILLER_0_69
*93 FILLER_1_18
*94 FILLER_1_30
*95 FILLER_1_42
*96 FILLER_1_54
*97 FILLER_1_57
*98 FILLER_1_6
*99 FILLER_1_69
*100 FILLER_2_23
*101 FILLER_2_27
*102 FILLER_2_29
*103 FILLER_2_3
*104 FILLER_2_33
*105 FILLER_2_49
*106 FILLER_2_55
*107 FILLER_2_62
*108 FILLER_2_74
*109 FILLER_2_9
*110 FILLER_3_28
*111 FILLER_3_46
*112 FILLER_4_19
*113 FILLER_4_29
*114 FILLER_4_48
*115 FILLER_4_54
*116 FILLER_4_80
*117 FILLER_5_14
*118 FILLER_5_22
*119 FILLER_5_33
*120 FILLER_5_57
*121 FILLER_5_67
*122 FILLER_6_17
*123 FILLER_6_36
*124 FILLER_6_47
*125 FILLER_6_54
*126 FILLER_6_70
*127 FILLER_6_8
*128 FILLER_7_11
*129 FILLER_7_20
*130 FILLER_7_32
*131 FILLER_7_36
*132 FILLER_7_47
*133 FILLER_7_55
*134 FILLER_7_57
*135 FILLER_7_71
*136 FILLER_8_18
*137 FILLER_8_29
*138 FILLER_8_35
*139 FILLER_8_45
*140 FILLER_8_53
*141 FILLER_8_6
*142 FILLER_8_62
*143 FILLER_8_74
*144 FILLER_8_80
*145 FILLER_9_15
*146 FILLER_9_27
*147 FILLER_9_29
*148 FILLER_9_3
*149 FILLER_9_33
*150 FILLER_9_44
*151 FILLER_9_57
*152 FILLER_9_69
*153 PHY_EDGE_ROW_0_Left_10
*154 PHY_EDGE_ROW_0_Right_0
*155 PHY_EDGE_ROW_1_Left_11
*156 PHY_EDGE_ROW_1_Right_1
*157 PHY_EDGE_ROW_2_Left_12
*158 PHY_EDGE_ROW_2_Right_2
*159 PHY_EDGE_ROW_3_Left_13
*160 PHY_EDGE_ROW_3_Right_3
*161 PHY_EDGE_ROW_4_Left_14
*162 PHY_EDGE_ROW_4_Right_4
*163 PHY_EDGE_ROW_5_Left_15
*164 PHY_EDGE_ROW_5_Right_5
*165 PHY_EDGE_ROW_6_Left_16
*166 PHY_EDGE_ROW_6_Right_6
*167 PHY_EDGE_ROW_7_Left_17
*168 PHY_EDGE_ROW_7_Right_7
*169 PHY_EDGE_ROW_8_Left_18
*170 PHY_EDGE_ROW_8_Right_8
*171 PHY_EDGE_ROW_9_Left_19
*172 PHY_EDGE_ROW_9_Right_9
*173 TAP_TAPCELL_ROW_0_20
*174 TAP_TAPCELL_ROW_0_21
*175 TAP_TAPCELL_ROW_1_22
*176 TAP_TAPCELL_ROW_2_23
*177 TAP_TAPCELL_ROW_3_24
*178 TAP_TAPCELL_ROW_4_25
*179 TAP_TAPCELL_ROW_5_26
*180 TAP_TAPCELL_ROW_6_27
*181 TAP_TAPCELL_ROW_7_28
*182 TAP_TAPCELL_ROW_8_29
*183 TAP_TAPCELL_ROW_9_30
*184 TAP_TAPCELL_ROW_9_31
*185 _38_
*186 _39_
*187 _40_
*188 _41_
*189 _42_
*190 _43_
*191 _44_
*192 _45_
*193 _46_
*194 _47_
*195 _48_
*196 _49_
*197 _50_
*198 _51_
*199 _52_
*200 _53_
*201 _54_
*202 _55_
*203 _56_
*204 _57_
*205 _58_
*206 _59_
*207 _60_
*208 _61_
*209 _62_
*210 _63_
*211 _64_
*212 _65_
*213 _66_
*214 _67_
*215 _68_
*216 _69_
*217 _70_
*218 _71_
*219 _72_
*220 _73_
*221 _74_
*222 _75_
*223 _76_
*224 _77_
*225 _78_
*226 _79_
*227 _80_
*228 _81_
*229 _82_
*230 _83_
*231 fanout20
*232 fanout21
*233 input1
*234 input10
*235 input11
*236 input2
*237 input3
*238 input4
*239 input5
*240 input6
*241 input7
*242 input8
*243 input9
*244 output12
*245 output13
*246 output14
*247 output15
*248 output16
*249 output17
*250 output18
*251 output19

*PORTS
A[0] I
A[1] I
A[2] I
A[3] I
A[4] I
A[5] I
A[6] I
B[0] I
B[1] I
B[2] I
B[3] I
B[4] I
B[5] I
B[6] I
OP I
ZF O
result[0] O
result[1] O
result[2] O
result[3] O
result[4] O
result[5] O
result[6] O

*D_NET *1 0.00106608
*CONN
*P A[0] I
*I *233:A I *D sky130_fd_sc_hd__clkbuf_1
*CAP
1 A[0] 0.000533042
2 *233:A 0.000533042
3 *233:A result[6] 0
*RES
1 A[0] *233:A 49.6829 
*END

*D_NET *2 0.00149107
*CONN
*P A[1] I
*I *236:A I *D sky130_fd_sc_hd__clkbuf_1
*CAP
1 A[1] 0.000483686
2 *236:A 0
3 *2:11 0.000483686
4 *2:11 ZF 0.000124849
5 *2:11 result[1] 0.000120757
6 *2:11 *8:15 0
7 *2:11 *18:10 0
8 *2:11 *68:18 0.000246748
9 *2:11 *70:14 3.13478e-05
*RES
1 A[1] *2:11 30.4175 
2 *2:11 *236:A 23 
*END

*D_NET *3 0.00094447
*CONN
*P A[2] I
*I *237:A I *D sky130_fd_sc_hd__buf_1
*CAP
1 A[2] 0.000454562
2 *237:A 0
3 *3:17 0.000454562
4 *3:17 *8:15 3.53455e-05
5 *3:17 *78:10 0
*RES
1 A[2] *3:17 30.3277 
2 *3:17 *237:A 23 
*END

*D_NET *4 0.000586212
*CONN
*P A[3] I
*I *238:A I *D sky130_fd_sc_hd__buf_1
*CAP
1 A[3] 0.000180631
2 *238:A 0.000180631
3 *238:A *239:A 0.000224949
*RES
1 A[3] *238:A 47.4311 
*END

*D_NET *5 0.000761276
*CONN
*P A[4] I
*I *239:A I *D sky130_fd_sc_hd__buf_1
*CAP
1 A[4] 0.000160925
2 *239:A 0.000160925
3 *239:A *6:15 0.000214478
4 *239:A *79:70 0
5 *238:A *239:A 0.000224949
*RES
1 A[4] *239:A 48.1354 
*END

*D_NET *6 0.0024722
*CONN
*P A[5] I
*I *240:A I *D sky130_fd_sc_hd__clkbuf_2
*CAP
1 A[5] 0.000635098
2 *240:A 0
3 *6:15 0.000635098
4 *6:15 *203:A3 0
5 *6:15 *232:A 2.41632e-05
6 *6:15 *241:A 0.000272595
7 *6:15 *77:8 0.000102093
8 *6:15 *77:18 0
9 *6:15 *79:70 0
10 *6:15 *81:73 0.000170592
11 *6:15 *81:96 6.82611e-05
12 *6:15 *84:23 0.000349818
13 *239:A *6:15 0.000214478
*RES
1 A[5] *6:15 34.9807 
2 *6:15 *240:A 23 
*END

*D_NET *7 0.00190313
*CONN
*P A[6] I
*I *241:A I *D sky130_fd_sc_hd__clkbuf_2
*CAP
1 A[6] 0.00055689
2 *241:A 0.00055689
3 *241:A *215:A2 4.9808e-05
4 *241:A *215:A3 5.02657e-05
5 *241:A *9:11 0.000416677
6 *6:15 *241:A 0.000272595
*RES
1 A[6] *241:A 48.6332 
*END

*D_NET *8 0.00154145
*CONN
*P B[0] I
*I *242:A I *D sky130_fd_sc_hd__buf_1
*CAP
1 B[0] 0.00056964
2 *242:A 0
3 *8:15 0.00056964
4 *8:15 result[2] 0.00012946
5 *8:15 *10:13 0.000237362
6 *8:15 *65:8 0
7 *8:15 *70:14 0
8 *2:11 *8:15 0
9 *3:17 *8:15 3.53455e-05
*RES
1 B[0] *8:15 33.2256 
2 *8:15 *242:A 23 
*END

*D_NET *9 0.00183684
*CONN
*P B[1] I
*I *243:A I *D sky130_fd_sc_hd__clkbuf_2
*CAP
1 B[1] 0.000413229
2 *243:A 0
3 *9:11 0.000413229
4 *9:11 result[3] 2.4375e-05
5 *9:11 *215:S1 2.24608e-05
6 *9:11 *15:11 0.000224235
7 *9:11 *51:48 7.75329e-06
8 *9:11 *77:18 0.000203955
9 *9:11 *81:105 0
10 *9:11 *84:8 0.000110922
11 *241:A *9:11 0.000416677
*RES
1 B[1] *9:11 27.3167 
2 *9:11 *243:A 23 
*END

*D_NET *10 0.00133471
*CONN
*P B[2] I
*I *234:A I *D sky130_fd_sc_hd__clkbuf_2
*CAP
1 B[2] 0.000310651
2 *234:A 0
3 *10:13 0.000310651
4 *10:13 result[1] 0.000345607
5 *10:13 result[2] 0.000130436
6 *10:13 *70:14 0
7 *8:15 *10:13 0.000237362
*RES
1 B[2] *10:13 29.9675 
2 *10:13 *234:A 23 
*END

*D_NET *15 0.00128523
*CONN
*P OP I
*I *235:A I *D sky130_fd_sc_hd__buf_1
*CAP
1 OP 0.000219154
2 *235:A 0
3 *15:11 0.000219154
4 *15:11 result[3] 0.000213678
5 *15:11 result[4] 7.20089e-05
6 *15:11 *232:A 7.53721e-05
7 *15:11 *22:10 5.52142e-05
8 *15:11 *61:8 0
9 *15:11 *66:25 0.000206417
10 *15:11 *71:8 0
11 *9:11 *15:11 0.000224235
*RES
1 OP *15:11 27.6004 
2 *15:11 *235:A 23 
*END

*D_NET *18 0.00133196
*CONN
*P ZF O
*I *244:X O *D sky130_fd_sc_hd__buf_2
*CAP
1 ZF 6.07546e-05
2 *244:X 0.000338168
3 *18:10 0.000398922
4 ZF result[0] 6.89934e-05
5 *18:10 *19:10 0.000238618
6 *18:10 *68:8 4.75206e-05
7 *18:10 *68:18 5.41385e-05
8 *2:11 ZF 0.000124849
9 *2:11 *18:10 0
*RES
1 *244:X *18:10 44.9911 
2 *18:10 ZF 8.4144 
*END

*D_NET *19 0.00105158
*CONN
*P result[0] O
*I *245:X O *D sky130_fd_sc_hd__buf_2
*CAP
1 result[0] 0.00010809
2 *245:X 0.000263896
3 *19:10 0.000371987
4 ZF result[0] 6.89934e-05
5 *18:10 *19:10 0.000238618
*RES
1 *245:X *19:10 42.1532 
2 *19:10 result[0] 8.4816 
*END

*D_NET *20 0.00097814
*CONN
*P result[1] O
*I *246:X O *D sky130_fd_sc_hd__buf_2
*CAP
1 result[1] 0.000248717
2 *246:X 0.000248717
3 result[1] result[2] 1.4344e-05
4 result[1] *70:14 0
5 *2:11 result[1] 0.000120757
6 *10:13 result[1] 0.000345607
*RES
1 *246:X result[1] 49.6148 
*END

*D_NET *21 0.000911013
*CONN
*P result[2] O
*I *247:X O *D sky130_fd_sc_hd__buf_2
*CAP
1 result[2] 0.000318387
2 *247:X 0.000318387
3 result[1] result[2] 1.4344e-05
4 *8:15 result[2] 0.00012946
5 *10:13 result[2] 0.000130436
*RES
1 *247:X result[2] 49.6135 
*END

*D_NET *22 0.00185519
*CONN
*P result[3] O
*I *248:X O *D sky130_fd_sc_hd__buf_2
*CAP
1 result[3] 0.000142555
2 *248:X 0.000260106
3 *22:10 0.000402661
4 result[3] result[4] 0.000246004
5 *22:10 result[4] 7.46212e-05
6 *22:10 result[5] 2.24608e-05
7 *22:10 *61:8 8.54136e-05
8 *22:10 *62:10 0.000266449
9 *22:10 *66:16 3.61897e-05
10 *22:10 *66:25 2.54646e-05
11 *9:11 result[3] 2.4375e-05
12 *15:11 result[3] 0.000213678
13 *15:11 *22:10 5.52142e-05
*RES
1 *248:X *22:10 44.1211 
2 *22:10 result[3] 8.9296 
*END

*D_NET *23 0.000852553
*CONN
*P result[4] O
*I *249:X O *D sky130_fd_sc_hd__buf_2
*CAP
1 result[4] 0.000170686
2 *249:X 0.000170686
3 result[4] result[5] 0.000118547
4 result[3] result[4] 0.000246004
5 *15:11 result[4] 7.20089e-05
6 *22:10 result[4] 7.46212e-05
*RES
1 *249:X result[4] 47.8691 
*END

*D_NET *24 0.000630212
*CONN
*P result[5] O
*I *250:X O *D sky130_fd_sc_hd__buf_2
*CAP
1 result[5] 0.000233277
2 *250:X 0.000233277
3 result[5] *66:16 2.26497e-05
4 result[4] result[5] 0.000118547
5 *22:10 result[5] 2.24608e-05
*RES
1 *250:X result[5] 47.1648 
*END

*D_NET *25 0.00110495
*CONN
*P result[6] O
*I *251:X O *D sky130_fd_sc_hd__buf_2
*CAP
1 result[6] 0.00054872
2 *251:X 0.00054872
3 result[6] *251:A 7.51453e-06
4 *233:A result[6] 0
*RES
1 *251:X result[6] 49.1236 
*END

*D_NET *26 0.00415349
*CONN
*I *199:A1 I *D sky130_fd_sc_hd__o21a_1
*I *208:A1 I *D sky130_fd_sc_hd__o211a_1
*I *207:B I *D sky130_fd_sc_hd__or3_1
*I *214:A2 I *D sky130_fd_sc_hd__a211o_1
*I *197:B I *D sky130_fd_sc_hd__or3b_1
*I *185:Y O *D sky130_fd_sc_hd__inv_2
*CAP
1 *199:A1 2.34823e-05
2 *208:A1 0
3 *207:B 0.000104895
4 *214:A2 0.000107679
5 *197:B 0
6 *185:Y 0.000115435
7 *26:25 0.000423781
8 *26:21 0.000553456
9 *26:15 0.0010491
10 *26:6 0.000798802
11 *207:B *214:A1 8.48502e-06
12 *207:B *47:10 5.67058e-05
13 *207:B *52:8 0.00014196
14 *214:A2 *214:A1 6.55442e-05
15 *214:A2 *247:A 1.37232e-05
16 *214:A2 *52:8 1.14154e-05
17 *26:6 *185:A 2.38387e-06
18 *26:6 *37:23 3.69211e-05
19 *26:15 *185:A 2.31641e-05
20 *26:15 *197:A 0.000177592
21 *26:21 *36:10 0
22 *26:21 *43:18 1.14452e-05
23 *26:21 *67:8 0
24 *26:21 *68:8 3.71369e-05
25 *26:21 *68:18 0
26 *26:21 *69:19 0
27 *26:21 *75:10 3.56537e-05
28 *26:25 *43:18 2.47015e-05
29 *26:25 *44:10 1.93489e-05
30 *26:25 *47:10 1.94685e-05
31 *26:25 *65:8 3.81391e-05
32 *26:25 *69:19 0
33 *26:25 *70:14 0
34 *26:25 *83:12 0.00025307
*RES
1 *185:Y *26:6 24.5743 
2 *26:6 *197:B 23 
3 *26:6 *26:15 11.6 
4 *26:15 *26:21 21.09 
5 *26:21 *26:25 20.075 
6 *26:25 *214:A2 25.5686 
7 *26:25 *207:B 25.5479 
8 *26:21 *208:A1 38 
9 *26:15 *199:A1 23.4971 
*END

*D_NET *27 0.00511344
*CONN
*I *203:A2 I *D sky130_fd_sc_hd__a311o_1
*I *191:A1 I *D sky130_fd_sc_hd__o211a_1
*I *195:A1 I *D sky130_fd_sc_hd__a211o_1
*I *211:A1 I *D sky130_fd_sc_hd__o2111a_1
*I *206:A1 I *D sky130_fd_sc_hd__o22a_1
*I *186:Y O *D sky130_fd_sc_hd__inv_2
*CAP
1 *203:A2 2.35926e-05
2 *191:A1 0.000232476
3 *195:A1 0
4 *211:A1 0
5 *206:A1 0.000199544
6 *186:Y 0.000153143
7 *27:38 0.000268371
8 *27:18 0.000280878
9 *27:16 0.000771426
10 *27:12 0.000823804
11 *27:8 0.000299156
12 *191:A1 *213:A2 2.24973e-05
13 *191:A1 *32:10 0.000100073
14 *191:A1 *76:49 0
15 *191:A1 *76:109 0
16 *191:A1 *77:73 0
17 *191:A1 *83:25 0.000103647
18 *203:A2 *203:A3 5.12055e-06
19 *206:A1 *28:14 2.56066e-05
20 *206:A1 *31:28 0.00010018
21 *206:A1 *31:34 0
22 *206:A1 *33:16 0.000193732
23 *206:A1 *48:10 1.05441e-05
24 *206:A1 *65:42 0
25 *206:A1 *81:42 1.76557e-05
26 *27:8 *31:8 8.85189e-05
27 *27:8 *33:34 6.00922e-06
28 *27:8 *41:10 0.000286281
29 *27:8 *80:14 0
30 *27:8 *81:20 1.01436e-05
31 *27:8 *84:33 5.97612e-05
32 *27:12 *203:A3 0.000140522
33 *27:16 *195:C1 0.000485766
34 *27:16 *203:A3 3.07986e-05
35 *27:16 *213:C1 4.00299e-05
36 *27:16 *214:A1 5.3304e-05
37 *27:16 *52:8 2.80512e-05
38 *27:18 *28:14 5.32094e-05
39 *27:18 *48:10 0.000130583
40 *27:38 *213:A2 4.6318e-06
41 *27:38 *28:14 2.3529e-05
42 *27:38 *32:10 6.07611e-06
43 *27:38 *48:10 3.47781e-05
44 *27:38 *76:49 0
*RES
1 *186:Y *27:8 42.0186 
2 *27:8 *27:12 17.0507 
3 *27:12 *27:16 24.1971 
4 *27:16 *27:18 1.90571 
5 *27:18 *206:A1 42.4121 
6 *27:18 *211:A1 38 
7 *27:16 *27:38 0.849286 
8 *27:38 *195:A1 38 
9 *27:38 *191:A1 43.365 
10 *27:12 *203:A2 23.4971 
*END

*D_NET *28 0.00330953
*CONN
*I *210:B1 I *D sky130_fd_sc_hd__a211o_1
*I *213:A2 I *D sky130_fd_sc_hd__o211a_1
*I *195:A2 I *D sky130_fd_sc_hd__a211o_1
*I *187:X O *D sky130_fd_sc_hd__and2b_1
*CAP
1 *210:B1 1.88106e-05
2 *213:A2 0.000418282
3 *195:A2 1.49804e-05
4 *187:X 5.10788e-05
5 *28:14 0.000945652
6 *28:6 0.000582278
7 *195:A2 *214:A1 5.50106e-05
8 *195:A2 *52:8 5.50106e-05
9 *210:B1 *210:A1 5.12055e-06
10 *210:B1 *76:21 0
11 *213:A2 *195:C1 5.86557e-05
12 *213:A2 *29:25 1.81777e-05
13 *213:A2 *52:8 0.000436767
14 *213:A2 *77:73 2.60152e-05
15 *28:6 *76:21 5.25848e-05
16 *28:14 *210:A2 2.64616e-05
17 *28:14 *211:B1 0.000268868
18 *28:14 *31:34 1.19591e-05
19 *28:14 *76:21 3.53115e-05
20 *28:14 *76:30 2.07791e-05
21 *28:14 *76:45 1.40958e-05
22 *28:14 *77:73 6.41609e-05
23 *191:A1 *213:A2 2.24973e-05
24 *206:A1 *28:14 2.56066e-05
25 *27:18 *28:14 5.32094e-05
26 *27:38 *213:A2 4.6318e-06
27 *27:38 *28:14 2.3529e-05
*RES
1 *187:X *28:6 24.0979 
2 *28:6 *28:14 24.6736 
3 *28:14 *195:A2 38.6214 
4 *28:14 *213:A2 46.5136 
5 *28:6 *210:B1 23.4971 
*END

*D_NET *29 0.00180657
*CONN
*I *213:B1 I *D sky130_fd_sc_hd__o211a_1
*I *191:A2 I *D sky130_fd_sc_hd__o211a_1
*I *188:X O *D sky130_fd_sc_hd__mux2_1
*CAP
1 *213:B1 0
2 *191:A2 0.000288948
3 *188:X 8.93876e-05
4 *29:25 0.000144766
5 *29:6 0.000523101
6 *191:A2 *76:59 0.000316338
7 *191:A2 *83:25 2.47702e-05
8 *29:6 *76:59 0.000137368
9 *29:25 *195:C1 5.56279e-05
10 *29:25 *213:C1 3.84128e-05
11 *29:25 *65:86 0.000169674
12 *213:A2 *29:25 1.81777e-05
*RES
1 *188:X *29:6 24.5743 
2 *29:6 *191:A2 28.2821 
3 *29:6 *29:25 33.3764 
4 *29:25 *213:B1 23 
*END

*D_NET *30 0.000460075
*CONN
*I *191:B1 I *D sky130_fd_sc_hd__o211a_1
*I *189:X O *D sky130_fd_sc_hd__or3b_1
*CAP
1 *191:B1 0
2 *189:X 0.000133181
3 *30:10 0.000133181
4 *30:10 *230:D 5.50049e-05
5 *30:10 *76:109 0.000138708
6 *30:10 *77:73 0
*RES
1 *189:X *30:10 40.5271 
2 *30:10 *191:B1 38 
*END

*D_NET *31 0.00516013
*CONN
*I *218:A1 I *D sky130_fd_sc_hd__o21a_1
*I *201:A I *D sky130_fd_sc_hd__and2_1
*I *191:C1 I *D sky130_fd_sc_hd__o211a_1
*I *206:B2 I *D sky130_fd_sc_hd__o22a_1
*I *211:D1 I *D sky130_fd_sc_hd__o2111a_1
*I *190:Y O *D sky130_fd_sc_hd__inv_2
*CAP
1 *218:A1 0.000152408
2 *201:A 0
3 *191:C1 0
4 *206:B2 0
5 *211:D1 0
6 *190:Y 7.55399e-05
7 *31:50 0.000493577
8 *31:34 0.000167632
9 *31:28 0.000472323
10 *31:24 0.00104078
11 *31:12 0.000400996
12 *31:10 0.000310894
13 *31:8 7.55399e-05
14 *218:A1 *33:34 0.000156058
15 *31:8 *33:34 4.334e-05
16 *31:12 *41:10 3.22467e-05
17 *31:12 *65:52 7.70813e-05
18 *31:24 *194:B1 6.86456e-05
19 *31:24 *35:10 1.14876e-05
20 *31:24 *65:42 0.000155696
21 *31:24 *65:52 0.000186598
22 *31:24 *81:42 2.61419e-05
23 *31:28 *206:B1 0
24 *31:28 *33:16 0.000116236
25 *31:28 *65:42 0.000141954
26 *31:28 *81:42 1.32939e-05
27 *31:34 *205:B 0
28 *31:34 *33:16 0
29 *31:34 *46:10 0.00015755
30 *31:34 *83:12 0
31 *31:50 *193:C 7.16508e-05
32 *31:50 *193:D 3.05701e-05
33 *31:50 *213:A1 4.08379e-06
34 *31:50 *35:10 0
35 *31:50 *65:36 3.87221e-06
36 *31:50 *65:42 6.60198e-05
37 *31:50 *76:49 0.000363364
38 *31:50 *76:109 3.70187e-05
39 *31:50 *81:42 6.87115e-06
40 *206:A1 *31:28 0.00010018
41 *206:A1 *31:34 0
42 *27:8 *31:8 8.85189e-05
43 *28:14 *31:34 1.19591e-05
*RES
1 *190:Y *31:8 39.9057 
2 *31:8 *31:10 15 
3 *31:10 *31:12 3.48 
4 *31:12 *31:24 35.5721 
5 *31:24 *31:28 6.83571 
6 *31:28 *31:34 33.3143 
7 *31:34 *211:D1 23 
8 *31:28 *206:B2 23 
9 *31:24 *31:50 39.3007 
10 *31:50 *191:C1 23 
11 *31:12 *201:A 23 
12 *31:10 *218:A1 26.9564 
*END

*D_NET *32 0.000437515
*CONN
*I *195:B1 I *D sky130_fd_sc_hd__a211o_1
*I *191:X O *D sky130_fd_sc_hd__o211a_1
*CAP
1 *195:B1 0
2 *191:X 0.000165683
3 *32:10 0.000165683
4 *32:10 *76:49 0
5 *191:A1 *32:10 0.000100073
6 *27:38 *32:10 6.07611e-06
*RES
1 *191:X *32:10 40.8793 
2 *32:10 *195:B1 38 
*END

*D_NET *33 0.00461433
*CONN
*I *218:A2 I *D sky130_fd_sc_hd__o21a_1
*I *211:A2 I *D sky130_fd_sc_hd__o2111a_1
*I *194:A3 I *D sky130_fd_sc_hd__a31o_1
*I *192:X O *D sky130_fd_sc_hd__and2b_1
*CAP
1 *218:A2 0
2 *211:A2 0
3 *194:A3 0
4 *192:X 0
5 *33:34 0.000303722
6 *33:16 0.000226546
7 *33:8 0.000894589
8 *33:4 0.000971765
9 *33:8 *200:A1 9.88574e-06
10 *33:8 *34:10 0.000140312
11 *33:8 *40:10 0.000100069
12 *33:8 *48:10 3.22879e-05
13 *33:8 *65:75 0.000324993
14 *33:8 *65:86 4.2573e-05
15 *33:8 *76:45 7.55599e-05
16 *33:8 *78:44 2.25809e-05
17 *33:8 *84:33 4.79641e-05
18 *33:8 *84:35 4.21062e-05
19 *33:8 *84:47 0.000188934
20 *33:16 *35:10 2.46906e-05
21 *33:16 *65:42 0.000316755
22 *33:16 *81:42 0.000333623
23 *33:34 *54:8 0
24 *33:34 *80:14 0
25 *206:A1 *33:16 0.000193732
26 *218:A1 *33:34 0.000156058
27 *27:8 *33:34 6.00922e-06
28 *31:8 *33:34 4.334e-05
29 *31:28 *33:16 0.000116236
30 *31:34 *33:16 0
*RES
1 *192:X *33:4 23 
2 *33:4 *33:8 13.5057 
3 *33:8 *33:16 38.2443 
4 *33:16 *194:A3 23 
5 *33:8 *211:A2 23 
6 *33:4 *33:34 35.0336 
7 *33:34 *218:A2 23 
*END

*D_NET *34 0.000909898
*CONN
*I *194:B1 I *D sky130_fd_sc_hd__a31o_1
*I *193:X O *D sky130_fd_sc_hd__and4b_1
*CAP
1 *194:B1 0.000103157
2 *193:X 0.000163267
3 *34:10 0.000266424
4 *34:10 *35:10 8.4047e-05
5 *34:10 *81:42 8.4047e-05
6 *31:24 *194:B1 6.86456e-05
7 *33:8 *34:10 0.000140312
*RES
1 *193:X *34:10 40.7757 
2 *34:10 *194:B1 40.5893 
*END

*D_NET *35 0.00222518
*CONN
*I *195:C1 I *D sky130_fd_sc_hd__a211o_1
*I *194:X O *D sky130_fd_sc_hd__a31o_1
*CAP
1 *195:C1 0.000161571
2 *194:X 0.000375376
3 *35:10 0.000536947
4 *195:C1 *52:8 0.000123924
5 *35:10 *193:C 0
6 *35:10 *193:D 1.72999e-05
7 *35:10 *65:42 1.34914e-05
8 *35:10 *65:86 0.000185983
9 *35:10 *78:44 2.06162e-05
10 *35:10 *81:42 6.96951e-05
11 *213:A2 *195:C1 5.86557e-05
12 *27:16 *195:C1 0.000485766
13 *29:25 *195:C1 5.56279e-05
14 *31:24 *35:10 1.14876e-05
15 *31:50 *35:10 0
16 *33:16 *35:10 2.46906e-05
17 *34:10 *35:10 8.4047e-05
*RES
1 *194:X *35:10 44.4214 
2 *35:10 *195:C1 43.8829 
*END

*D_NET *36 0.00119554
*CONN
*I *199:A2 I *D sky130_fd_sc_hd__o21a_1
*I *195:X O *D sky130_fd_sc_hd__a211o_1
*CAP
1 *199:A2 0
2 *195:X 0.00042168
3 *36:10 0.00042168
4 *36:10 *38:18 0
5 *36:10 *47:10 0.000103507
6 *36:10 *52:8 7.73389e-05
7 *36:10 *75:10 2.5415e-05
8 *36:10 *77:65 0
9 *36:10 *77:73 0.000145915
10 *26:21 *36:10 0
*RES
1 *195:X *36:10 46.41 
2 *36:10 *199:A2 38 
*END

*D_NET *37 0.00233753
*CONN
*I *228:B1 I *D sky130_fd_sc_hd__o211a_1
*I *224:A2 I *D sky130_fd_sc_hd__a31o_1
*I *197:C_N I *D sky130_fd_sc_hd__or3b_1
*I *196:Y O *D sky130_fd_sc_hd__nor2_1
*CAP
1 *228:B1 5.77287e-05
2 *224:A2 0
3 *197:C_N 0
4 *196:Y 0.000232613
5 *37:29 0.000110917
6 *37:23 0.000630549
7 *37:12 0.000461904
8 *37:10 0.000232613
9 *228:B1 *66:16 3.23684e-05
10 *37:10 *77:34 0.000146195
11 *37:10 *77:40 4.41324e-05
12 *37:23 *185:A 0.000127897
13 *37:23 *66:16 2.93747e-05
14 *37:29 *58:10 0.000194318
15 *26:6 *37:23 3.69211e-05
*RES
1 *196:Y *37:10 41.8321 
2 *37:10 *37:12 15 
3 *37:12 *197:C_N 23 
4 *37:12 *37:23 9.36286 
5 *37:23 *37:29 32.61 
6 *37:29 *224:A2 23 
7 *37:23 *228:B1 24.1186 
*END

*D_NET *38 0.00254762
*CONN
*I *225:A1 I *D sky130_fd_sc_hd__mux2_1
*I *198:A0 I *D sky130_fd_sc_hd__mux2_1
*I *204:A0 I *D sky130_fd_sc_hd__mux2_1
*I *197:X O *D sky130_fd_sc_hd__or3b_1
*CAP
1 *225:A1 7.50863e-05
2 *198:A0 0
3 *204:A0 0
4 *197:X 9.82354e-05
5 *38:18 0.000227767
6 *38:12 0.000386747
7 *38:10 0.000234067
8 *38:8 9.82354e-05
9 *225:A1 *198:S 2.93845e-05
10 *225:A1 *60:10 1.32939e-05
11 *225:A1 *77:59 0.000127821
12 *38:8 *77:40 3.36312e-06
13 *38:8 *77:57 1.71223e-05
14 *38:12 *198:S 0.000276598
15 *38:12 *77:59 0.000579793
16 *38:18 *39:10 0
17 *38:18 *75:10 0
18 *38:18 *77:65 0.000380106
19 *36:10 *38:18 0
*RES
1 *197:X *38:8 39.5536 
2 *38:8 *38:10 15 
3 *38:10 *38:12 6.815 
4 *38:12 *38:18 35.4271 
5 *38:18 *204:A0 23 
6 *38:12 *198:A0 23 
7 *38:10 *225:A1 25.0507 
*END

*D_NET *39 0.00055072
*CONN
*I *199:B1 I *D sky130_fd_sc_hd__o21a_1
*I *198:X O *D sky130_fd_sc_hd__mux2_1
*CAP
1 *199:B1 0
2 *198:X 0.000204425
3 *39:10 0.000204425
4 *39:10 *75:10 0.000141869
5 *38:18 *39:10 0
*RES
1 *198:X *39:10 41.48 
2 *39:10 *199:B1 38 
*END

*D_NET *40 0.000544556
*CONN
*I *201:B I *D sky130_fd_sc_hd__and2_1
*I *200:X O *D sky130_fd_sc_hd__mux2_1
*CAP
1 *201:B 0
2 *200:X 0.000173318
3 *40:10 0.000173318
4 *40:10 *41:10 2.04854e-05
5 *40:10 *84:47 7.73656e-05
6 *33:8 *40:10 0.000100069
*RES
1 *200:X *40:10 41.3557 
2 *40:10 *201:B 38 
*END

*D_NET *41 0.00107505
*CONN
*I *203:B1 I *D sky130_fd_sc_hd__a311o_1
*I *201:X O *D sky130_fd_sc_hd__and2_1
*CAP
1 *203:B1 0
2 *201:X 0.000254857
3 *41:10 0.000254857
4 *41:10 *196:A 3.18198e-05
5 *41:10 *81:20 3.69427e-05
6 *41:10 *81:42 0
7 *41:10 *84:47 0
8 *41:10 *84:56 0.000157559
9 *27:8 *41:10 0.000286281
10 *31:12 *41:10 3.22467e-05
11 *40:10 *41:10 2.04854e-05
*RES
1 *201:X *41:10 43.3443 
2 *41:10 *203:B1 38 
*END

*D_NET *42 0.00332965
*CONN
*I *221:A I *D sky130_fd_sc_hd__and2_1
*I *219:A1 I *D sky130_fd_sc_hd__o21a_1
*I *203:C1 I *D sky130_fd_sc_hd__a311o_1
*I *202:Y O *D sky130_fd_sc_hd__inv_2
*CAP
1 *221:A 0.000551215
2 *219:A1 0
3 *203:C1 0.000198281
4 *202:Y 0
5 *42:10 0.000342102
6 *42:4 0.000695036
7 *203:C1 *202:A 3.70187e-05
8 *203:C1 *203:A3 0.000138444
9 *203:C1 *217:B 0.000161121
10 *203:C1 *222:A1 1.01436e-05
11 *203:C1 *76:85 6.08043e-05
12 *203:C1 *81:20 1.62615e-05
13 *203:C1 *84:33 8.80821e-05
14 *221:A *63:22 0.000674308
15 *42:10 *202:A 0.000135547
16 *42:10 *222:A1 0.000125413
17 *42:10 *63:22 9.5877e-05
*RES
1 *202:Y *42:4 23 
2 *42:4 *42:10 18.0036 
3 *42:10 *203:C1 42.8886 
4 *42:10 *219:A1 38 
5 *42:4 *221:A 32.0936 
*END

*D_NET *43 0.00356132
*CONN
*I *208:A2 I *D sky130_fd_sc_hd__o211a_1
*I *203:X O *D sky130_fd_sc_hd__a311o_1
*CAP
1 *208:A2 0
2 *203:X 0.000204863
3 *43:18 0.00136065
4 *43:8 0.00156551
5 *43:8 *188:A1 1.16734e-05
6 *43:8 *196:A 0
7 *43:8 *65:86 0.000292856
8 *43:8 *65:101 4.45778e-05
9 *43:8 *81:42 2.23884e-05
10 *43:18 *44:10 2.26497e-05
11 *43:18 *78:23 0
12 *43:18 *78:44 0
13 *43:18 *84:73 0
14 *26:21 *43:18 1.14452e-05
15 *26:25 *43:18 2.47015e-05
*RES
1 *203:X *43:8 42.5468 
2 *43:8 *43:18 33.6955 
3 *43:18 *208:A2 23 
*END

*D_NET *44 0.000725415
*CONN
*I *208:B1 I *D sky130_fd_sc_hd__o211a_1
*I *204:X O *D sky130_fd_sc_hd__mux2_1
*CAP
1 *208:B1 0
2 *204:X 0.000200886
3 *44:10 0.000200886
4 *44:10 *230:D 0.000223698
5 *44:10 *47:10 5.79466e-05
6 *26:25 *44:10 1.93489e-05
7 *43:18 *44:10 2.26497e-05
*RES
1 *204:X *44:10 41.3764 
2 *44:10 *208:B1 38 
*END

*D_NET *45 0.000223153
*CONN
*I *206:B1 I *D sky130_fd_sc_hd__o22a_1
*I *205:X O *D sky130_fd_sc_hd__and2b_1
*CAP
1 *206:B1 9.1234e-05
2 *205:X 9.1234e-05
3 *206:B1 *46:10 4.06849e-05
4 *31:28 *206:B1 0
*RES
1 *205:X *206:B1 48.0714 
*END

*D_NET *46 0.000958322
*CONN
*I *207:C I *D sky130_fd_sc_hd__or3_1
*I *206:X O *D sky130_fd_sc_hd__o22a_1
*CAP
1 *207:C 0
2 *206:X 0.000327995
3 *46:10 0.000327995
4 *46:10 *205:B 0
5 *46:10 *76:38 3.99357e-05
6 *46:10 *77:73 6.41609e-05
7 *206:B1 *46:10 4.06849e-05
8 *31:34 *46:10 0.00015755
*RES
1 *206:X *46:10 43.8207 
2 *46:10 *207:C 38 
*END

*D_NET *47 0.000918909
*CONN
*I *208:C1 I *D sky130_fd_sc_hd__o211a_1
*I *207:X O *D sky130_fd_sc_hd__or3_1
*CAP
1 *208:C1 1.97605e-05
2 *207:X 0.000226311
3 *47:10 0.000246072
4 *208:C1 *230:D 5.50106e-05
5 *208:C1 *75:16 1.94812e-05
6 *47:10 *83:12 0.000114645
7 *207:B *47:10 5.67058e-05
8 *26:25 *47:10 1.94685e-05
9 *36:10 *47:10 0.000103507
10 *44:10 *47:10 5.79466e-05
*RES
1 *207:X *47:10 43.3443 
2 *47:10 *208:C1 38.6214 
*END

*D_NET *48 0.00185914
*CONN
*I *214:A1 I *D sky130_fd_sc_hd__a211o_1
*I *209:Y O *D sky130_fd_sc_hd__inv_2
*CAP
1 *214:A1 0.00041639
2 *209:Y 0.000138344
3 *48:10 0.000554734
4 *214:A1 *52:8 0.000221704
5 *214:A1 *76:38 5.50106e-05
6 *48:10 *209:A 2.74082e-05
7 *48:10 *76:45 5.50106e-05
8 *48:10 *76:49 0
9 *195:A2 *214:A1 5.50106e-05
10 *206:A1 *48:10 1.05441e-05
11 *207:B *214:A1 8.48502e-06
12 *214:A2 *214:A1 6.55442e-05
13 *27:16 *214:A1 5.3304e-05
14 *27:18 *48:10 0.000130583
15 *27:38 *48:10 3.47781e-05
16 *33:8 *48:10 3.22879e-05
*RES
1 *209:Y *48:10 40.8793 
2 *48:10 *214:A1 45.7886 
*END

*D_NET *49 0.000606838
*CONN
*I *211:B1 I *D sky130_fd_sc_hd__o2111a_1
*I *210:X O *D sky130_fd_sc_hd__a211o_1
*CAP
1 *211:B1 9.54179e-05
2 *210:X 9.54179e-05
3 *211:B1 *76:30 7.53384e-06
4 *211:B1 *76:45 0.0001396
5 *28:14 *211:B1 0.000268868
*RES
1 *210:X *211:B1 49.5007 
*END

*D_NET *50 0.000816544
*CONN
*I *214:B1 I *D sky130_fd_sc_hd__a211o_1
*I *211:X O *D sky130_fd_sc_hd__o2111a_1
*CAP
1 *214:B1 0
2 *211:X 0.000215189
3 *50:10 0.000215189
4 *50:10 *65:8 4.34045e-05
5 *50:10 *76:21 1.32314e-05
6 *50:10 *76:30 0.000139352
7 *50:10 *76:45 5.50106e-05
8 *50:10 *83:12 0.000135168
*RES
1 *211:X *50:10 41.9564 
2 *50:10 *214:B1 38 
*END

*D_NET *51 0.00446405
*CONN
*I *216:B1 I *D sky130_fd_sc_hd__a2bb2o_1
*I *219:B1 I *D sky130_fd_sc_hd__o21a_1
*I *213:C1 I *D sky130_fd_sc_hd__o211a_1
*I *212:X O *D sky130_fd_sc_hd__and2b_1
*CAP
1 *216:B1 0
2 *219:B1 0
3 *213:C1 0.00033588
4 *212:X 0.000187949
5 *51:48 0.000522404
6 *51:31 0.000648875
7 *51:10 0.0006503
8 *213:C1 *196:A 0.00021179
9 *213:C1 *203:A3 0.000161214
10 *213:C1 *217:B 2.01531e-05
11 *213:C1 *222:A1 6.7177e-06
12 *213:C1 *81:20 0.000114074
13 *51:10 *196:A 9.80563e-05
14 *51:10 *222:A1 2.96369e-05
15 *51:10 *63:22 0.000140224
16 *51:31 *188:A0 0.000308039
17 *51:31 *76:68 4.05745e-05
18 *51:31 *83:25 0.000140259
19 *51:48 *188:A0 3.21843e-05
20 *51:48 *215:A2 1.01436e-05
21 *51:48 *215:S1 2.96051e-05
22 *51:48 *220:B1 9.84794e-05
23 *51:48 *220:B2 9.61128e-05
24 *51:48 *227:A1 0.000139346
25 *51:48 *76:59 0
26 *51:48 *77:20 1.56762e-05
27 *51:48 *80:60 9.67842e-05
28 *51:48 *81:88 8.4047e-05
29 *51:48 *81:105 0.000111852
30 *51:48 *84:8 4.74809e-05
31 *9:11 *51:48 7.75329e-06
32 *27:16 *213:C1 4.00299e-05
33 *29:25 *213:C1 3.84128e-05
*RES
1 *212:X *51:10 41.1279 
2 *51:10 *213:C1 45.4364 
3 *51:10 *51:31 18.9771 
4 *51:31 *219:B1 23 
5 *51:31 *51:48 40.8957 
6 *51:48 *216:B1 23 
*END

*D_NET *52 0.00171502
*CONN
*I *214:C1 I *D sky130_fd_sc_hd__a211o_1
*I *213:X O *D sky130_fd_sc_hd__o211a_1
*CAP
1 *214:C1 0
2 *213:X 0.000281917
3 *52:8 0.000281917
4 *52:8 *76:38 5.50106e-05
5 *195:A2 *52:8 5.50106e-05
6 *195:C1 *52:8 0.000123924
7 *207:B *52:8 0.00014196
8 *213:A2 *52:8 0.000436767
9 *214:A1 *52:8 0.000221704
10 *214:A2 *52:8 1.14154e-05
11 *27:16 *52:8 2.80512e-05
12 *36:10 *52:8 7.73389e-05
*RES
1 *213:X *52:8 32.6943 
2 *52:8 *214:C1 23 
*END

*D_NET *53 0.000913481
*CONN
*I *216:B2 I *D sky130_fd_sc_hd__a2bb2o_1
*I *215:X O *D sky130_fd_sc_hd__mux4_1
*CAP
1 *216:B2 0
2 *215:X 0.000355619
3 *53:10 0.000355619
4 *53:10 *215:A2 5.19702e-05
5 *53:10 *215:S1 0.000109739
6 *53:10 *80:6 4.05328e-05
*RES
1 *215:X *53:10 43.51 
2 *53:10 *216:B2 38 
*END

*D_NET *54 0.000733659
*CONN
*I *218:B1 I *D sky130_fd_sc_hd__o21a_1
*I *217:X O *D sky130_fd_sc_hd__or3_1
*CAP
1 *218:B1 0
2 *217:X 0.000271384
3 *54:8 0.000271384
4 *54:8 *55:8 0.000137747
5 *54:8 *80:14 0
6 *54:8 *82:20 5.31444e-05
7 *33:34 *54:8 0
*RES
1 *217:X *54:8 43.075 
2 *54:8 *218:B1 38 
*END

*D_NET *55 0.00149824
*CONN
*I *220:B1 I *D sky130_fd_sc_hd__a2bb2o_1
*I *218:X O *D sky130_fd_sc_hd__o21a_1
*CAP
1 *220:B1 3.02067e-05
2 *218:X 0.000318561
3 *55:8 0.000348767
4 *220:B1 *220:B2 5.67058e-05
5 *55:8 *188:A0 0
6 *55:8 *79:12 3.62219e-05
7 *55:8 *80:60 0.000471553
8 *55:8 *82:20 0
9 *51:48 *220:B1 9.84794e-05
10 *54:8 *55:8 0.000137747
*RES
1 *218:X *55:8 45.54 
2 *55:8 *220:B1 39.0979 
*END

*D_NET *56 0.000355106
*CONN
*I *220:B2 I *D sky130_fd_sc_hd__a2bb2o_1
*I *219:X O *D sky130_fd_sc_hd__o21a_1
*CAP
1 *220:B2 9.80567e-05
2 *219:X 9.80567e-05
3 *220:B2 *188:A0 6.17437e-06
4 *220:B1 *220:B2 5.67058e-05
5 *51:48 *220:B2 9.61128e-05
*RES
1 *219:X *220:B2 48.5271 
*END

*D_NET *57 0.00154515
*CONN
*I *222:B1 I *D sky130_fd_sc_hd__a21o_1
*I *228:A2 I *D sky130_fd_sc_hd__o211a_1
*I *221:X O *D sky130_fd_sc_hd__and2_1
*CAP
1 *222:B1 0.000151346
2 *228:A2 0
3 *221:X 0.000135881
4 *57:10 0.000287227
5 *222:B1 *58:10 0.000156647
6 *222:B1 *82:40 1.14452e-05
7 *222:B1 *82:53 0.000368301
8 *57:10 *224:B1 9.58714e-05
9 *57:10 *58:10 0.000168754
10 *57:10 *82:40 0.000169674
*RES
1 *221:X *57:10 41.3557 
2 *57:10 *228:A2 38 
3 *57:10 *222:B1 42.6607 
*END

*D_NET *58 0.00101683
*CONN
*I *224:A3 I *D sky130_fd_sc_hd__a31o_1
*I *222:X O *D sky130_fd_sc_hd__a21o_1
*CAP
1 *224:A3 0
2 *222:X 0.000235547
3 *58:10 0.000235547
4 *58:10 *82:40 2.60152e-05
5 *222:B1 *58:10 0.000156647
6 *37:29 *58:10 0.000194318
7 *57:10 *58:10 0.000168754
*RES
1 *222:X *58:10 43.3443 
2 *58:10 *224:A3 38 
*END

*D_NET *59 0.0011482
*CONN
*I *224:B1 I *D sky130_fd_sc_hd__a31o_1
*I *223:Y O *D sky130_fd_sc_hd__nor2_1
*CAP
1 *224:B1 0.000231225
2 *223:Y 4.95964e-05
3 *59:8 0.000280821
4 *224:B1 *63:22 0.000117354
5 *224:B1 *73:10 5.3304e-05
6 *224:B1 *77:28 7.88828e-05
7 *224:B1 *77:34 7.14265e-05
8 *59:8 *223:A 0.000114092
9 *59:8 *77:116 5.56306e-05
10 *57:10 *224:B1 9.58714e-05
*RES
1 *223:Y *59:8 39.5536 
2 *59:8 *224:B1 42.93 
*END

*D_NET *60 0.000808366
*CONN
*I *226:A I *D sky130_fd_sc_hd__inv_2
*I *225:X O *D sky130_fd_sc_hd__mux2_1
*CAP
1 *226:A 7.39823e-05
2 *225:X 0.000212465
3 *60:10 0.000286447
4 *226:A *251:A 5.50049e-05
5 *226:A *64:10 2.91016e-05
6 *60:10 *198:S 5.40241e-05
7 *60:10 *64:10 8.4047e-05
8 *225:A1 *60:10 1.32939e-05
*RES
1 *225:X *60:10 41.48 