*SPEF "ieee 1481-1999"
*DESIGN "ALU_7bit"
*DATE "17:25:40 Sunday June 08, 2025"
*VENDOR "The OpenROAD Project"
*PROGRAM "OpenROAD"
*VERSION "v2.0-16235-gedf00dff9"
*DESIGN_FLOW "NAME_SCOPE LOCAL" "PIN_CAP NONE"
*DIVIDER /
*DELIMITER :
*BUS_DELIMITER []
*T_UNIT 1 NS
*C_UNIT 1 PF
*R_UNIT 1 OHM
*L_UNIT 1 HENRY

*NAME_MAP
*1 A[0]
*2 A[1]
*3 A[2]
*4 A[3]
*5 A[4]
*6 A[5]
*7 A[6]
*8 B[0]
*9 B[1]
*10 B[2]
*11 B[3]
*12 B[4]
*13 B[5]
*14 B[6]
*15 OP
*18 ZF
*19 result[0]
*20 result[1]
*21 result[2]
*22 result[3]
*23 result[4]
*24 result[5]
*25 result[6]
*26 _00_
*27 _01_
*28 _02_
*29 _03_
*30 _04_
*31 _05_
*32 _06_
*33 _07_
*34 _08_
*35 _09_
*36 _10_
*37 _11_
*38 _12_
*39 _13_
*40 _14_
*41 _15_
*42 _16_
*43 _17_
*44 _18_
*45 _19_
*46 _20_
*47 _21_
*48 _22_
*49 _23_
*50 _24_
*51 _25_
*52 _26_
*53 _27_
*54 _28_
*55 _29_
*56 _30_
*57 _31_
*58 _32_
*59 _33_
*60 _34_
*61 _35_
*62 _36_
*63 _37_
*64 net1
*65 net10
*66 net11
*67 net12
*68 net13
*69 net14
*70 net15
*71 net16
*72 net17
*73 net18
*74 net19
*75 net2
*76 net20
*77 net21
*78 net3
*79 net4
*80 net5
*81 net6
*82 net7
*83 net8
*84 net9
*85 FILLER_0_15
*86 FILLER_0_27
*87 FILLER_0_29
*88 FILLER_0_3
*89 FILLER_0_41
*90 FILLER_0_53
*91 FILLER_0_57
*92 FILLER_0_69
*93 FILLER_1_18
*94 FILLER_1_30
*95 FILLER_1_42
*96 FILLER_1_54
*97 FILLER_1_57
*98 FILLER_1_6
*99 FILLER_1_69
*100 FILLER_2_23
*101 FILLER_2_27
*102 FILLER_2_29
*103 FILLER_2_3
*104 FILLER_2_33
*105 FILLER_2_49
*106 FILLER_2_55
*107 FILLER_2_62
*108 FILLER_2_74
*109 FILLER_2_9
*110 FILLER_3_28
*111 FILLER_3_46
*112 FILLER_4_19
*113 FILLER_4_29
*114 FILLER_4_48
*115 FILLER_4_54
*116 FILLER_4_80
*117 FILLER_5_14
*118 FILLER_5_22
*119 FILLER_5_33
*120 FILLER_5_57
*121 FILLER_5_67
*122 FILLER_6_17
*123 FILLER_6_36
*124 FILLER_6_47
*125 FILLER_6_54
*126 FILLER_6_70
*127 FILLER_6_8
*128 FILLER_7_11
*129 FILLER_7_20
*130 FILLER_7_32
*131 FILLER_7_36
*132 FILLER_7_47
*133 FILLER_7_55
*134 FILLER_7_57
*135 FILLER_7_71
*136 FILLER_8_18
*137 FILLER_8_29
*138 FILLER_8_35
*139 FILLER_8_45
*140 FILLER_8_53
*141 FILLER_8_6
*142 FILLER_8_62
*143 FILLER_8_74
*144 FILLER_8_80
*145 FILLER_9_15
*146 FILLER_9_27
*147 FILLER_9_29
*148 FILLER_9_3
*149 FILLER_9_33
*150 FILLER_9_44
*151 FILLER_9_57
*152 FILLER_9_69
*153 PHY_EDGE_ROW_0_Left_10
*154 PHY_EDGE_ROW_0_Right_0
*155 PHY_EDGE_ROW_1_Left_11
*156 PHY_EDGE_ROW_1_Right_1
*157 PHY_EDGE_ROW_2_Left_12
*158 PHY_EDGE_ROW_2_Right_2
*159 PHY_EDGE_ROW_3_Left_13
*160 PHY_EDGE_ROW_3_Right_3
*161 PHY_EDGE_ROW_4_Left_14
*162 PHY_EDGE_ROW_4_Right_4
*163 PHY_EDGE_ROW_5_Left_15
*164 PHY_EDGE_ROW_5_Right_5
*165 PHY_EDGE_ROW_6_Left_16
*166 PHY_EDGE_ROW_6_Right_6
*167 PHY_EDGE_ROW_7_Left_17
*168 PHY_EDGE_ROW_7_Right_7
*169 PHY_EDGE_ROW_8_Left_18
*170 PHY_EDGE_ROW_8_Right_8
*171 PHY_EDGE_ROW_9_Left_19
*172 PHY_EDGE_ROW_9_Right_9
*173 TAP_TAPCELL_ROW_0_20
*174 TAP_TAPCELL_ROW_0_21
*175 TAP_TAPCELL_ROW_1_22
*176 TAP_TAPCELL_ROW_2_23
*177 TAP_TAPCELL_ROW_3_24
*178 TAP_TAPCELL_ROW_4_25
*179 TAP_TAPCELL_ROW_5_26
*180 TAP_TAPCELL_ROW_6_27
*181 TAP_TAPCELL_ROW_7_28
*182 TAP_TAPCELL_ROW_8_29
*183 TAP_TAPCELL_ROW_9_30
*184 TAP_TAPCELL_ROW_9_31
*185 _38_
*186 _39_
*187 _40_
*188 _41_
*189 _42_
*190 _43_
*191 _44_
*192 _45_
*193 _46_
*194 _47_
*195 _48_
*196 _49_
*197 _50_
*198 _51_
*199 _52_
*200 _53_
*201 _54_
*202 _55_
*203 _56_
*204 _57_
*205 _58_
*206 _59_
*207 _60_
*208 _61_
*209 _62_
*210 _63_
*211 _64_
*212 _65_
*213 _66_
*214 _67_
*215 _68_
*216 _69_
*217 _70_
*218 _71_
*219 _72_
*220 _73_
*221 _74_
*222 _75_
*223 _76_
*224 _77_
*225 _78_
*226 _79_
*227 _80_
*228 _81_
*229 _82_
*230 _83_
*231 fanout20
*232 fanout21
*233 input1
*234 input10
*235 input11
*236 input2
*237 input3
*238 input4
*239 input5
*240 input6
*241 input7
*242 input8
*243 input9
*244 output12
*245 output13
*246 output14
*247 output15
*248 output16
*249 output17
*250 output18
*251 output19

*PORTS
A[0] I
A[1] I
A[2] I
A[3] I
A[4] I
A[5] I
A[6] I
B[0] I
B[1] I
B[2] I
B[3] I
B[4] I
B[5] I
B[6] I
OP I
ZF O
result[0] O
result[1] O
result[2] O
result[3] O
result[4] O
result[5] O
result[6] O

*D_NET *1 0.000955101
*CONN
*P A[0] I
*I *233:A I *D sky130_fd_sc_hd__clkbuf_1
*CAP
1 A[0] 0.00047755
2 *233:A 0.00047755
3 *233:A result[6] 0
*RES
1 A[0] *233:A 12.06 
*END

*D_NET *2 0.00127324
*CONN
*P A[1] I
*I *236:A I *D sky130_fd_sc_hd__clkbuf_1
*CAP
1 A[1] 0.000407337
2 *236:A 0.000407337
3 *236:A ZF 0.000113445
4 *236:A result[1] 0.000109546
5 *236:A *230:A 0.000206123
6 *236:A *230:C 2.94565e-05
7 *236:A *242:A 0
*RES
1 A[1] *236:A 9.43677 
*END

*D_NET *3 0.000825679
*CONN
*P A[2] I
*I *237:A I *D sky130_fd_sc_hd__buf_1
*CAP
1 A[2] 0.0003958
2 *237:A 0.0003958
3 *237:A *242:A 3.40802e-05
4 *237:A *78:10 0
*RES
1 A[2] *237:A 9.3843 
*END

*D_NET *4 0.000515937
*CONN
*P A[3] I
*I *238:A I *D sky130_fd_sc_hd__buf_1
*CAP
1 A[3] 0.000155842
2 *238:A 0.000155842
3 *238:A *239:A 0.000204253
*RES
1 A[3] *238:A 5.10177 
*END

*D_NET *5 0.000664256
*CONN
*P A[4] I
*I *239:A I *D sky130_fd_sc_hd__buf_1
*CAP
1 A[4] 0.000131499
2 *239:A 0.000131499
3 *239:A *216:A1_N 0
4 *239:A *240:A 0.000197006
5 *238:A *239:A 0.000204253
*RES
1 A[4] *239:A 5.61177 
*END

*D_NET *6 0.00207065
*CONN
*P A[5] I
*I *240:A I *D sky130_fd_sc_hd__clkbuf_2
*CAP
1 A[5] 0.000490627
2 *240:A 0.000490627
3 *240:A *203:A3 0
4 *240:A *216:A1_N 0
5 *240:A *227:A2 6.3889e-05
6 *240:A *232:A 2.46719e-05
7 *240:A *241:A 0.000247367
8 *240:A *77:8 9.52646e-05
9 *240:A *77:18 0
10 *240:A *81:73 0.000154152
11 *240:A *84:23 0.000307049
12 *239:A *240:A 0.000197006
*RES
1 A[5] *240:A 12.7333 
*END

*D_NET *7 0.00165586
*CONN
*P A[6] I
*I *241:A I *D sky130_fd_sc_hd__clkbuf_2
*CAP
1 A[6] 0.000469507
2 *241:A 0.000469507
3 *241:A *215:A2 4.13879e-05
4 *241:A *215:A3 4.1977e-05
5 *241:A *243:A 0.000386117
6 *240:A *241:A 0.000247367
*RES
1 A[6] *241:A 5.9175 
*END

*D_NET *8 0.00130987
*CONN
*P B[0] I
*I *242:A I *D sky130_fd_sc_hd__buf_1
*CAP
1 B[0] 0.000468014
2 *242:A 0.000468014
3 *242:A result[2] 0.00011862
4 *242:A *230:C 0
5 *242:A *234:A 0.000221144
6 *242:A *65:8 0
7 *236:A *242:A 0
8 *237:A *242:A 3.40802e-05
*RES
1 B[0] *242:A 11.482 
*END

*D_NET *9 0.00156096
*CONN
*P B[1] I
*I *243:A I *D sky130_fd_sc_hd__clkbuf_2
*CAP
1 B[1] 0.000328625
2 *243:A 0.000328625
3 *243:A result[3] 2.35332e-05
4 *243:A *215:S1 1.88904e-05
5 *243:A *216:B1 8.08153e-06
6 *243:A *235:A 0.000203573
7 *243:A *77:18 0.000170435
8 *243:A *81:105 0
9 *243:A *84:8 9.30787e-05
10 *241:A *243:A 0.000386117
*RES
1 B[1] *243:A 7.15617 
*END

*D_NET *10 0.00112451
*CONN
*P B[2] I
*I *234:A I *D sky130_fd_sc_hd__clkbuf_2
*CAP
1 B[2] 0.000241163
2 *234:A 0.000241163
3 *234:A result[1] 0.000306167
4 *234:A result[2] 0.000114877
5 *234:A *230:C 0
6 *242:A *234:A 0.000221144
*RES
1 B[2] *234:A 9.13043 
*END

*D_NET *15 0.00107602
*CONN
*P OP I
*I *235:A I *D sky130_fd_sc_hd__buf_1
*CAP
1 OP 0.000165316
2 *235:A 0.000165316
3 *235:A result[3] 0.000246282
4 *235:A result[4] 6.06593e-05
5 *235:A *229:C 0
6 *235:A *232:A 6.28008e-05
7 *235:A *66:25 0.000172069
8 *235:A *71:8 0
9 *243:A *235:A 0.000203573
*RES
1 OP *235:A 7.39677 
*END

*D_NET *18 0.00112623
*CONN
*P ZF O
*I *244:X O *D sky130_fd_sc_hd__buf_2
*CAP
1 ZF 0.000321624
2 *244:X 0.000321624
3 ZF result[0] 0.000274619
4 ZF *230:A 5.05521e-05
5 ZF *68:8 4.43682e-05
6 *236:A ZF 0.000113445
*RES
1 *244:X ZF 9.4437 
*END

*D_NET *19 0.000883478
*CONN
*P result[0] O
*I *245:X O *D sky130_fd_sc_hd__buf_2
*CAP
1 result[0] 0.00030443
2 *245:X 0.00030443
3 ZF result[0] 0.000274619
*RES
1 *245:X result[0] 7.4343 
*END

*D_NET *20 0.000830029
*CONN
*P result[1] O
*I *246:X O *D sky130_fd_sc_hd__buf_2
*CAP
1 result[1] 0.000200063
2 *246:X 0.000200063
3 result[1] result[2] 1.41896e-05
4 result[1] *230:C 0
5 *234:A result[1] 0.000306167
6 *236:A result[1] 0.000109546
*RES
1 *246:X result[1] 6.6987 
*END

*D_NET *21 0.000786744
*CONN
*P result[2] O
*I *247:X O *D sky130_fd_sc_hd__buf_2
*CAP
1 result[2] 0.000269529
2 *247:X 0.000269529
3 result[1] result[2] 1.41896e-05
4 *234:A result[2] 0.000114877
5 *242:A result[2] 0.00011862
*RES
1 *247:X result[2] 6.68183 
*END

*D_NET *22 0.00154325
*CONN
*P result[3] O
*I *248:X O *D sky130_fd_sc_hd__buf_2
*CAP
1 result[3] 0.00030093
2 *248:X 0.00030093
3 result[3] result[4] 0.000285659
4 result[3] result[5] 1.88904e-05
5 result[3] *228:C1 3.56832e-05
6 result[3] *229:C 7.9381e-05
7 result[3] *229:D 0.000226513
8 result[3] *66:25 2.54436e-05
9 *235:A result[3] 0.000246282
10 *243:A result[3] 2.35332e-05
*RES
1 *248:X result[3] 9.1633 
*END

*D_NET *23 0.000715892
*CONN
*P result[4] O
*I *249:X O *D sky130_fd_sc_hd__buf_2
*CAP
1 result[4] 0.000127238
2 *249:X 0.000127238
3 result[4] result[5] 0.000115098
4 result[3] result[4] 0.000285659
5 *235:A result[4] 6.06593e-05
*RES
1 *249:X result[4] 5.41503 
*END

*D_NET *24 0.000537802
*CONN
*P result[5] O
*I *250:X O *D sky130_fd_sc_hd__buf_2
*CAP
1 result[5] 0.000192474
2 *250:X 0.000192474
3 result[5] *228:C1 1.88656e-05
4 result[3] result[5] 1.88904e-05
5 result[4] result[5] 0.000115098
*RES
1 *250:X result[5] 4.90503 
*END

*D_NET *25 0.000974864
*CONN
*P result[6] O
*I *251:X O *D sky130_fd_sc_hd__buf_2
*CAP
1 result[6] 0.000484084
2 *251:X 0.000484084
3 result[6] *251:A 6.69608e-06
4 *233:A result[6] 0
*RES
1 *251:X result[6] 11.655 
*END

*D_NET *26 0.00345334
*CONN
*I *199:A1 I *D sky130_fd_sc_hd__o21a_1
*I *208:A1 I *D sky130_fd_sc_hd__o211a_1
*I *207:B I *D sky130_fd_sc_hd__or3_1
*I *214:A2 I *D sky130_fd_sc_hd__a211o_1
*I *197:B I *D sky130_fd_sc_hd__or3b_1
*I *185:Y O *D sky130_fd_sc_hd__inv_2
*CAP
1 *199:A1 2.08101e-05
2 *208:A1 0
3 *207:B 8.39491e-05
4 *214:A2 8.78204e-05
5 *197:B 0
6 *185:Y 9.28213e-05
7 *26:25 0.000328371
8 *26:21 0.000433981
9 *26:15 0.000865707
10 *26:6 0.000660338
11 *207:B *208:C1 4.99619e-05
12 *207:B *214:A1 8.34281e-06
13 *207:B *214:C1 0.0001249
14 *214:A2 *214:A1 6.0078e-05
15 *214:A2 *214:C1 9.53428e-06
16 *214:A2 *247:A 1.37328e-05
17 *26:6 *185:A 2.59934e-06
18 *26:6 *37:23 3.5061e-05
19 *26:15 *185:A 2.50123e-05
20 *26:15 *197:A 0.000160561
21 *26:21 *199:A2 0
22 *26:21 *208:A2 9.50342e-06
23 *26:21 *230:A 0
24 *26:21 *244:A 0
25 *26:21 *246:A 0
26 *26:21 *68:8 3.45679e-05
27 *26:21 *75:16 3.68682e-05
28 *26:25 *208:A2 2.05641e-05
29 *26:25 *208:B1 1.80446e-05
30 *26:25 *208:C1 2.04147e-05
31 *26:25 *230:C 0
32 *26:25 *231:A 0.000210846
33 *26:25 *246:A 0
34 *26:25 *65:8 3.89528e-05
*RES
1 *185:Y *26:6 2.74 
2 *26:6 *197:B 1.6 
3 *26:6 *26:15 8.4 
4 *26:15 *26:21 6.41 
5 *26:21 *26:25 5.675 
6 *26:25 *214:A2 3.46 
7 *26:25 *207:B 3.445 
8 *26:21 *208:A1 3.6 
9 *26:15 *199:A1 1.96 
*END

*D_NET *27 0.0041079
*CONN
*I *203:A2 I *D sky130_fd_sc_hd__a311o_1
*I *191:A1 I *D sky130_fd_sc_hd__o211a_1
*I *195:A1 I *D sky130_fd_sc_hd__a211o_1
*I *211:A1 I *D sky130_fd_sc_hd__o2111a_1
*I *206:A1 I *D sky130_fd_sc_hd__o22a_1
*I *186:Y O *D sky130_fd_sc_hd__inv_2
*CAP
1 *203:A2 2.04088e-05
2 *191:A1 0.000176564
3 *195:A1 0
4 *211:A1 0
5 *206:A1 0.000146764
6 *186:Y 0.000209731
7 *27:38 0.000199739
8 *27:18 0.000197634
9 *27:16 0.000593659
10 *27:12 0.000749755
11 *191:A1 *195:B1 9.39147e-05
12 *191:A1 *211:C1 0
13 *191:A1 *213:A2 2.15594e-05
14 *191:A1 *76:49 0
15 *191:A1 *76:109 0
16 *191:A1 *83:25 9.66106e-05
17 *203:A2 *203:A3 4.87465e-06
18 *206:A1 *194:A3 0.000164452
19 *206:A1 *206:A2 1.61831e-05
20 *206:A1 *211:D1 0
21 *206:A1 *214:A1 8.7152e-06
22 *206:A1 *28:14 2.50235e-05
23 *206:A1 *31:28 8.8266e-05
24 *206:A1 *65:42 0
25 *27:12 *203:A3 0.00012453
26 *27:12 *203:B1 0.000240189
27 *27:12 *218:A2 6.56448e-06
28 *27:12 *31:10 7.4027e-05
29 *27:12 *80:14 0
30 *27:12 *81:20 8.53113e-06
31 *27:12 *84:33 5.65627e-05
32 *27:16 *195:C1 0.000420469
33 *27:16 *203:A3 2.79137e-05
34 *27:16 *213:C1 3.91506e-05
35 *27:16 *214:A1 4.66108e-05
36 *27:16 *214:C1 2.59926e-05
37 *27:18 *214:A1 0.000109962
38 *27:18 *28:14 5.19849e-05
39 *27:38 *195:B1 5.53249e-06
40 *27:38 *213:A2 4.43871e-06
41 *27:38 *214:A1 2.92496e-05
42 *27:38 *28:14 2.23407e-05
43 *27:38 *76:49 0
*RES
1 *186:Y *27:12 9.995 
2 *27:12 *27:16 8.66 
3 *27:16 *27:18 1.38 
4 *27:18 *206:A1 6.795 
5 *27:18 *211:A1 3.6 
6 *27:16 *27:38 0.615 
7 *27:38 *195:A1 3.6 
8 *27:38 *191:A1 7.485 
9 *27:12 *203:A2 1.96 
*END

*D_NET *28 0.00272436
*CONN
*I *210:B1 I *D sky130_fd_sc_hd__a211o_1
*I *213:A2 I *D sky130_fd_sc_hd__o211a_1
*I *195:A2 I *D sky130_fd_sc_hd__a211o_1
*I *187:X O *D sky130_fd_sc_hd__and2b_1
*CAP
1 *210:B1 1.64063e-05
2 *213:A2 0.000331279
3 *195:A2 9.71884e-06
4 *187:X 3.82009e-05
5 *28:14 0.000727979
6 *28:6 0.000441589
7 *195:A2 *214:A1 4.82919e-05
8 *195:A2 *214:C1 4.82919e-05
9 *210:B1 *210:A1 4.87465e-06
10 *210:B1 *76:21 0
11 *213:A2 *195:C1 5.65909e-05
12 *213:A2 *211:C1 2.42236e-05
13 *213:A2 *213:B1 1.71542e-05
14 *213:A2 *214:C1 0.000383657
15 *28:6 *76:21 4.92062e-05
16 *28:14 *210:A2 2.49909e-05
17 *28:14 *211:B1 0.00023635
18 *28:14 *211:C1 6.10229e-05
19 *28:14 *211:D1 1.3758e-05
20 *28:14 *76:21 3.23663e-05
21 *28:14 *76:30 1.96098e-05
22 *28:14 *76:45 1.34503e-05
23 *191:A1 *213:A2 2.15594e-05
24 *206:A1 *28:14 2.50235e-05
25 *27:18 *28:14 5.19849e-05
26 *27:38 *213:A2 4.43871e-06
27 *27:38 *28:14 2.23407e-05
*RES
1 *187:X *28:6 2.395 
2 *28:6 *28:14 9.005 
3 *28:14 *195:A2 4.05 
4 *28:14 *213:A2 9.765 
5 *28:6 *210:B1 1.96 
*END

*D_NET *29 0.00146004
*CONN
*I *213:B1 I *D sky130_fd_sc_hd__o211a_1
*I *191:A2 I *D sky130_fd_sc_hd__o211a_1
*I *188:X O *D sky130_fd_sc_hd__mux2_1
*CAP
1 *213:B1 0.00011292
2 *191:A2 0.000225702
3 *188:X 6.51043e-05
4 *29:6 0.000403727
5 *191:A2 *76:59 0.000269916
6 *191:A2 *83:25 2.50602e-05
7 *213:B1 *195:C1 4.77719e-05
8 *213:B1 *213:C1 3.18367e-05
9 *213:B1 *65:86 0.000141599
10 *29:6 *76:59 0.000119246
11 *213:A2 *213:B1 1.71542e-05
*RES
1 *188:X *29:6 2.74 
2 *29:6 *191:A2 5.425 
3 *29:6 *213:B1 8.045 
*END

*D_NET *30 0.000361877
*CONN
*I *191:B1 I *D sky130_fd_sc_hd__o211a_1
*I *189:X O *D sky130_fd_sc_hd__or3b_1
*CAP
1 *191:B1 9.87195e-05
2 *189:X 9.87195e-05
3 *191:B1 *211:C1 0
4 *191:B1 *230:D 4.82863e-05
5 *191:B1 *76:109 0.000116151
*RES
1 *189:X *191:B1 9.03 
*END

*D_NET *31 0.00424114
*CONN
*I *218:A1 I *D sky130_fd_sc_hd__o21a_1
*I *201:A I *D sky130_fd_sc_hd__and2_1
*I *191:C1 I *D sky130_fd_sc_hd__o211a_1
*I *206:B2 I *D sky130_fd_sc_hd__o22a_1
*I *211:D1 I *D sky130_fd_sc_hd__o2111a_1
*I *190:Y O *D sky130_fd_sc_hd__inv_2
*CAP
1 *218:A1 0.000133355
2 *201:A 0
3 *191:C1 0.000344529
4 *206:B2 0
5 *211:D1 0.00012353
6 *190:Y 5.5866e-05
7 *31:28 0.000393279
8 *31:24 0.000803633
9 *31:12 0.000319523
10 *31:10 0.000319388
11 *191:C1 *193:C 5.95174e-05
12 *191:C1 *193:D 3.4665e-05
13 *191:C1 *195:C1 0
14 *191:C1 *206:A2 7.43727e-06
15 *191:C1 *213:A1 4.37173e-06
16 *191:C1 *65:36 4.61701e-06
17 *191:C1 *65:42 7.01689e-05
18 *191:C1 *76:49 0.00030472
19 *191:C1 *76:109 3.09233e-05
20 *211:D1 *194:A3 0
21 *211:D1 *205:B 0
22 *211:D1 *207:C 0.000132715
23 *211:D1 *231:A 0
24 *218:A1 *218:A2 0.000145184
25 *31:10 *218:A2 4.05358e-05
26 *31:12 *186:A 7.40356e-05
27 *31:12 *203:B1 2.937e-05
28 *31:24 *186:A 0.000161675
29 *31:24 *194:B1 5.68975e-05
30 *31:24 *195:C1 1.17409e-05
31 *31:24 *206:A2 2.39948e-05
32 *31:24 *65:42 0.00013306
33 *31:28 *194:A3 0.000108137
34 *31:28 *206:A2 1.33293e-05
35 *31:28 *206:B1 0
36 *31:28 *65:42 0.000124895
37 *206:A1 *211:D1 0
38 *206:A1 *31:28 8.8266e-05
39 *27:12 *31:10 7.4027e-05
40 *28:14 *211:D1 1.3758e-05
*RES
1 *190:Y *31:10 6.98 
2 *31:10 *31:12 2.52 
3 *31:12 *31:24 8.035 
4 *31:24 *31:28 4.95 
5 *31:28 *211:D1 8 
6 *31:28 *206:B2 1.6 
7 *31:24 *191:C1 12.335 
8 *31:12 *201:A 1.6 
9 *31:10 *218:A1 4.465 
*END

*D_NET *32 0.000344461
*CONN
*I *195:B1 I *D sky130_fd_sc_hd__a211o_1
*I *191:X O *D sky130_fd_sc_hd__o211a_1
*CAP
1 *195:B1 0.000122507
2 *191:X 0.000122507
3 *195:B1 *76:49 0
4 *191:A1 *195:B1 9.39147e-05
5 *27:38 *195:B1 5.53249e-06
*RES
1 *191:X *195:B1 9.285 
*END

*D_NET *33 0.0038235
*CONN
*I *218:A2 I *D sky130_fd_sc_hd__o21a_1
*I *211:A2 I *D sky130_fd_sc_hd__o2111a_1
*I *194:A3 I *D sky130_fd_sc_hd__a31o_1
*I *192:X O *D sky130_fd_sc_hd__and2b_1
*CAP
1 *218:A2 0.000250279
2 *211:A2 0
3 *194:A3 0.000163838
4 *192:X 0
5 *33:8 0.000678835
6 *33:4 0.000765275
7 *194:A3 *195:C1 2.20014e-05
8 *194:A3 *206:A2 0.00030227
9 *194:A3 *65:42 0.000272662
10 *218:A2 *218:B1 0
11 *218:A2 *80:14 0
12 *33:8 *194:A1 0.000160314
13 *33:8 *194:B1 0.000120692
14 *33:8 *200:A0 2.17931e-05
15 *33:8 *200:A1 1.03323e-05
16 *33:8 *201:B 8.52883e-05
17 *33:8 *214:A1 3.00381e-05
18 *33:8 *65:75 0.000283205
19 *33:8 *65:86 3.74161e-05
20 *33:8 *76:45 7.03516e-05
21 *33:8 *84:33 4.47209e-05
22 *33:8 *84:35 3.93101e-05
23 *206:A1 *194:A3 0.000164452
24 *211:D1 *194:A3 0
25 *218:A1 *218:A2 0.000145184
26 *27:12 *218:A2 6.56448e-06
27 *31:10 *218:A2 4.05358e-05
28 *31:28 *194:A3 0.000108137
*RES
1 *192:X *33:4 1.6 
2 *33:4 *33:8 9.78 
3 *33:8 *194:A3 11.57 
4 *33:8 *211:A2 1.6 
5 *33:4 *218:A2 9.245 
*END

*D_NET *34 0.000719094
*CONN
*I *194:B1 I *D sky130_fd_sc_hd__a31o_1
*I *193:X O *D sky130_fd_sc_hd__and4b_1
*CAP
1 *194:B1 0.000200066
2 *193:X 0.000200066
3 *194:B1 *195:C1 7.06865e-05
4 *194:B1 *206:A2 7.06865e-05
5 *31:24 *194:B1 5.68975e-05
6 *33:8 *194:B1 0.000120692
*RES
1 *193:X *194:B1 11.085 
*END

*D_NET *35 0.00179546
*CONN
*I *195:C1 I *D sky130_fd_sc_hd__a211o_1
*I *194:X O *D sky130_fd_sc_hd__a31o_1
*CAP
1 *195:C1 0.000389312
2 *194:X 0.000389312
3 *195:C1 *193:C 0
4 *195:C1 *193:D 2.00931e-05
5 *195:C1 *200:A0 1.99862e-05
6 *195:C1 *206:A2 6.22497e-05
7 *195:C1 *214:C1 0.000115762
8 *195:C1 *65:42 1.31227e-05
9 *195:C1 *65:86 0.000156364
10 *191:C1 *195:C1 0
11 *194:A3 *195:C1 2.20014e-05
12 *194:B1 *195:C1 7.06865e-05
13 *213:A2 *195:C1 5.65909e-05
14 *213:B1 *195:C1 4.77719e-05
15 *27:16 *195:C1 0.000420469
16 *31:24 *195:C1 1.17409e-05
*RES
1 *194:X *195:C1 16.11 
*END

*D_NET *36 0.000959823
*CONN
*I *199:A2 I *D sky130_fd_sc_hd__o21a_1
*I *195:X O *D sky130_fd_sc_hd__a211o_1
*CAP
1 *199:A2 0.000308363
2 *195:X 0.000308363
3 *199:A2 *204:A0 0
4 *199:A2 *208:C1 0.000107855
5 *199:A2 *211:C1 0.000136305
6 *199:A2 *214:C1 7.22354e-05
7 *199:A2 *75:16 2.67022e-05
8 *199:A2 *77:65 0
9 *26:21 *199:A2 0
*RES
1 *195:X *199:A2 13.29 
*END

*D_NET *37 0.00195348
*CONN
*I *228:B1 I *D sky130_fd_sc_hd__o211a_1
*I *224:A2 I *D sky130_fd_sc_hd__a31o_1
*I *197:C_N I *D sky130_fd_sc_hd__or3b_1
*I *196:Y O *D sky130_fd_sc_hd__nor2_1
*CAP
1 *228:B1 4.33523e-05
2 *224:A2 8.46744e-05
3 *197:C_N 0
4 *196:Y 0.000182676
5 *37:23 0.00052251
6 *37:12 0.000577159
7 *224:A2 *224:A3 0.000162325
8 *228:B1 *228:C1 3.04064e-05
9 *37:12 *77:34 0.000124473
10 *37:12 *77:40 4.84487e-05
11 *37:23 *185:A 0.000114876
12 *37:23 *228:C1 2.75145e-05
13 *26:6 *37:23 3.5061e-05
*RES
1 *196:Y *37:12 8.375 
2 *37:12 *197:C_N 1.6 
3 *37:12 *37:23 6.78 
4 *37:23 *224:A2 7.49 
5 *37:23 *228:B1 2.41 
*END

*D_NET *38 0.00210883
*CONN
*I *225:A1 I *D sky130_fd_sc_hd__mux2_1
*I *198:A0 I *D sky130_fd_sc_hd__mux2_1
*I *204:A0 I *D sky130_fd_sc_hd__mux2_1
*I *197:X O *D sky130_fd_sc_hd__or3b_1
*CAP
1 *225:A1 5.83744e-05
2 *198:A0 0
3 *204:A0 0.000173843
4 *197:X 7.13756e-05
5 *38:12 0.000300502
6 *38:10 0.000256409
7 *204:A0 *199:B1 0
8 *204:A0 *75:16 0
9 *204:A0 *77:65 0.000317127
10 *225:A1 *198:S 2.75229e-05
11 *225:A1 *226:A 1.33293e-05
12 *225:A1 *77:59 0.000112349
13 *38:10 *77:40 3.60024e-06
14 *38:10 *77:57 1.94182e-05
15 *38:12 *198:S 0.00025267
16 *38:12 *77:59 0.00050231
17 *199:A2 *204:A0 0
*RES
1 *197:X *38:10 6.725 
2 *38:10 *38:12 4.935 
3 *38:12 *204:A0 9.53 
4 *38:12 *198:A0 1.6 
5 *38:10 *225:A1 3.085 
*END

*D_NET *39 0.000451371
*CONN
*I *199:B1 I *D sky130_fd_sc_hd__o21a_1
*I *198:X O *D sky130_fd_sc_hd__mux2_1
*CAP
1 *199:B1 0.000166429
2 *198:X 0.000166429
3 *199:B1 *75:16 0.000118513
4 *204:A0 *199:B1 0
*RES
1 *198:X *199:B1 9.72 
*END

*D_NET *40 0.000446239
*CONN
*I *201:B I *D sky130_fd_sc_hd__and2_1
*I *200:X O *D sky130_fd_sc_hd__mux2_1
*CAP
1 *201:B 0.000132387
2 *200:X 0.000132387
3 *201:B *194:A1 7.31592e-05
4 *201:B *203:B1 2.30184e-05
5 *33:8 *201:B 8.52883e-05
*RES
1 *200:X *201:B 9.63 
*END

*D_NET *41 0.00082603
*CONN
*I *203:B1 I *D sky130_fd_sc_hd__a311o_1
*I *201:X O *D sky130_fd_sc_hd__and2_1
*CAP
1 *203:B1 0.000171633
2 *201:X 0.000171633
3 *203:B1 *194:A1 0
4 *203:B1 *196:A 2.73058e-05
5 *203:B1 *206:A2 0
6 *203:B1 *81:20 3.22949e-05
7 *203:B1 *84:56 0.000130587
8 *201:B *203:B1 2.30184e-05
9 *27:12 *203:B1 0.000240189
10 *31:12 *203:B1 2.937e-05
*RES
1 *201:X *203:B1 11.07 
*END

*D_NET *42 0.00272875
*CONN
*I *221:A I *D sky130_fd_sc_hd__and2_1
*I *219:A1 I *D sky130_fd_sc_hd__o21a_1
*I *203:C1 I *D sky130_fd_sc_hd__a311o_1
*I *202:Y O *D sky130_fd_sc_hd__inv_2
*CAP
1 *221:A 0.000459388
2 *219:A1 0
3 *203:C1 0.000128822
4 *202:Y 0
5 *42:10 0.000228701
6 *42:4 0.000559267
7 *203:C1 *202:A 3.09233e-05
8 *203:C1 *203:A3 0.000121437
9 *203:C1 *217:B 0.00013521
10 *203:C1 *222:A1 8.53113e-06
11 *203:C1 *76:85 6.36273e-05
12 *203:C1 *81:20 1.61461e-05
13 *203:C1 *84:33 7.58604e-05
14 *221:A *230:D 0.000597751
15 *42:10 *202:A 0.00011379
16 *42:10 *222:A1 0.000105266
17 *42:10 *230:D 8.40269e-05
*RES
1 *202:Y *42:4 1.6 
2 *42:4 *42:10 4.175 
3 *42:10 *203:C1 7.14 
4 *42:10 *219:A1 3.6 
5 *42:4 *221:A 8.185 
*END

*D_NET *43 0.00300404
*CONN
*I *208:A2 I *D sky130_fd_sc_hd__o211a_1
*I *203:X O *D sky130_fd_sc_hd__a311o_1
*CAP
1 *208:A2 0.001317
2 *203:X 0.001317
3 *208:A2 *188:A1 1.31828e-05
4 *208:A2 *196:A 0
5 *208:A2 *200:A0 0
6 *208:A2 *206:A2 2.47705e-05
7 *208:A2 *208:B1 1.88656e-05
8 *208:A2 *65:86 0.000245199
9 *208:A2 *65:101 3.79555e-05
10 *208:A2 *78:23 0
11 *208:A2 *84:73 0
12 *26:21 *208:A2 9.50342e-06
13 *26:25 *208:A2 2.05641e-05
*RES
1 *203:X *208:A2 13.3362 
*END

*D_NET *44 0.000594906
*CONN
*I *208:B1 I *D sky130_fd_sc_hd__o211a_1
*I *204:X O *D sky130_fd_sc_hd__mux2_1
*CAP
1 *208:B1 0.000156382
2 *204:X 0.000156382
3 *208:B1 *208:C1 4.88568e-05
4 *208:B1 *230:D 0.000196376
5 *208:A2 *208:B1 1.88656e-05
6 *26:25 *208:B1 1.80446e-05
*RES
1 *204:X *208:B1 9.645 
*END

*D_NET *45 0.000197127
*CONN
*I *206:B1 I *D sky130_fd_sc_hd__o22a_1
*I *205:X O *D sky130_fd_sc_hd__and2b_1
*CAP
1 *206:B1 7.99179e-05
2 *205:X 7.99179e-05
3 *206:B1 *207:C 3.72916e-05
4 *31:28 *206:B1 0
*RES
1 *205:X *206:B1 4.7 
*END

*D_NET *46 0.000746144
*CONN
*I *207:C I *D sky130_fd_sc_hd__or3_1
*I *206:X O *D sky130_fd_sc_hd__o22a_1
*CAP
1 *207:C 0.000235853
2 *206:X 0.000235853
3 *207:C *205:B 0
4 *207:C *207:A 4.34093e-05
5 *207:C *211:C1 6.10229e-05
6 *206:B1 *207:C 3.72916e-05
7 *211:D1 *207:C 0.000132715
*RES
1 *206:X *207:C 11.415 
*END

*D_NET *47 0.000738592
*CONN
*I *208:C1 I *D sky130_fd_sc_hd__o211a_1
*I *207:X O *D sky130_fd_sc_hd__or3_1
*CAP
1 *208:C1 0.000169493
2 *207:X 0.000169493
3 *208:C1 *230:D 4.82919e-05
4 *208:C1 *231:A 0.000105841
5 *208:C1 *75:16 1.83847e-05
6 *199:A2 *208:C1 0.000107855
7 *207:B *208:C1 4.99619e-05
8 *208:B1 *208:C1 4.88568e-05
9 *26:25 *208:C1 2.04147e-05
*RES
1 *207:X *208:C1 11.52 
*END

*D_NET *48 0.00149952
*CONN
*I *214:A1 I *D sky130_fd_sc_hd__a211o_1
*I *209:Y O *D sky130_fd_sc_hd__inv_2
*CAP
1 *214:A1 0.00041299
2 *209:Y 0.00041299
3 *214:A1 *207:A 4.82919e-05
4 *214:A1 *209:A 2.77052e-05
5 *214:A1 *214:C1 0.000207966
6 *214:A1 *76:45 4.82919e-05
7 *214:A1 *76:49 0
8 *195:A2 *214:A1 4.82919e-05
9 *206:A1 *214:A1 8.7152e-06
10 *207:B *214:A1 8.34281e-06
11 *214:A2 *214:A1 6.0078e-05
12 *27:16 *214:A1 4.66108e-05
13 *27:18 *214:A1 0.000109962
14 *27:38 *214:A1 2.92496e-05
15 *33:8 *214:A1 3.00381e-05
*RES
1 *209:Y *214:A1 14.925 
*END

*D_NET *49 0.000514804
*CONN
*I *211:B1 I *D sky130_fd_sc_hd__o2111a_1
*I *210:X O *D sky130_fd_sc_hd__a211o_1
*CAP
1 *211:B1 7.05004e-05
2 *210:X 7.05004e-05
3 *211:B1 *76:30 7.00889e-06
4 *211:B1 *76:45 0.000130445
5 *28:14 *211:B1 0.00023635
*RES
1 *210:X *211:B1 5.735 
*END

*D_NET *50 0.000661334
*CONN
*I *214:B1 I *D sky130_fd_sc_hd__a211o_1
*I *211:X O *D sky130_fd_sc_hd__o2111a_1
*CAP
1 *214:B1 0.000160152
2 *211:X 0.000160152
3 *214:B1 *231:A 0.000113828
4 *214:B1 *65:8 4.49219e-05
5 *214:B1 *76:21 1.16578e-05
6 *214:B1 *76:30 0.000122331
7 *214:B1 *76:45 4.82919e-05
*RES
1 *211:X *214:B1 10.065 
*END

*D_NET *51 0.00359146
*CONN
*I *216:B1 I *D sky130_fd_sc_hd__a2bb2o_1
*I *219:B1 I *D sky130_fd_sc_hd__o21a_1
*I *213:C1 I *D sky130_fd_sc_hd__o211a_1
*I *212:X O *D sky130_fd_sc_hd__and2b_1
*CAP
1 *216:B1 0.000399934
2 *219:B1 0
3 *213:C1 0.000242871
4 *212:X 0.000133472
5 *51:31 0.000490341
6 *51:10 0.00046675
7 *213:C1 *196:A 0.00017423
8 *213:C1 *203:A3 0.000140179
9 *213:C1 *217:B 2.16389e-05
10 *213:C1 *222:A1 7.21296e-06
11 *213:C1 *81:20 9.5433e-05
12 *216:B1 *188:A0 3.07034e-05
13 *216:B1 *215:A2 8.53113e-06
14 *216:B1 *215:S1 2.78732e-05
15 *216:B1 *220:A1_N 8.49205e-05
16 *216:B1 *220:B1 8.65905e-05
17 *216:B1 *220:B2 8.96017e-05
18 *216:B1 *227:A1 0.000122325
19 *216:B1 *76:59 0
20 *216:B1 *77:20 1.46828e-05
21 *216:B1 *81:88 7.06865e-05
22 *216:B1 *81:105 9.37731e-05
23 *216:B1 *84:8 4.50017e-05
24 *51:10 *196:A 8.12102e-05
25 *51:10 *222:A1 3.18219e-05
26 *51:10 *230:D 0.000120645
27 *51:31 *188:A0 0.000270415
28 *51:31 *76:68 3.83194e-05
29 *51:31 *83:25 0.000123225
30 *213:B1 *213:C1 3.18367e-05
31 *243:A *216:B1 8.08153e-06
32 *27:16 *213:C1 3.91506e-05
*RES
1 *212:X *51:10 5.865 
2 *51:10 *213:C1 8.985 
3 *51:10 *51:31 4.88 
4 *51:31 *219:B1 1.6 
5 *51:31 *216:B1 13.49 
*END

*D_NET *52 0.00143588
*CONN
*I *214:C1 I *D sky130_fd_sc_hd__a211o_1
*I *213:X O *D sky130_fd_sc_hd__o211a_1
*CAP
1 *214:C1 0.000199626
2 *213:X 0.000199626
3 *214:C1 *207:A 4.82919e-05
4 *195:A2 *214:C1 4.82919e-05
5 *195:C1 *214:C1 0.000115762
6 *199:A2 *214:C1 7.22354e-05
7 *207:B *214:C1 0.0001249
8 *213:A2 *214:C1 0.000383657
9 *214:A1 *214:C1 0.000207966
10 *214:A2 *214:C1 9.53428e-06
11 *27:16 *214:C1 2.59926e-05
*RES
1 *213:X *214:C1 10.22 
*END

*D_NET *53 0.000756381
*CONN
*I *216:B2 I *D sky130_fd_sc_hd__a2bb2o_1
*I *215:X O *D sky130_fd_sc_hd__mux4_1
*CAP
1 *216:B2 0.000287304
2 *215:X 0.000287304
3 *216:B2 *215:A2 4.95398e-05
4 *216:B2 *215:S1 9.20976e-05
5 *216:B2 *80:6 4.01349e-05
*RES
1 *215:X *216:B2 11.19 
*END

*D_NET *54 0.000577095
*CONN
*I *218:B1 I *D sky130_fd_sc_hd__o21a_1
*I *217:X O *D sky130_fd_sc_hd__or3_1
*CAP
1 *218:B1 0.000198273
2 *217:X 0.000198273
3 *218:B1 *220:B1 0.000130326
4 *218:B1 *80:14 0
5 *218:B1 *82:20 5.02217e-05
6 *218:A2 *218:B1 0
*RES
1 *217:X *218:B1 10.875 
*END

*D_NET *55 0.00117898
*CONN
*I *220:B1 I *D sky130_fd_sc_hd__a2bb2o_1
*I *218:X O *D sky130_fd_sc_hd__o21a_1
*CAP
1 *220:B1 0.000241305
2 *218:X 0.000241305
3 *220:B1 *188:A0 0
4 *220:B1 *220:A1_N 0.000395277
5 *220:B1 *220:B2 4.99619e-05
6 *220:B1 *79:12 3.42142e-05
7 *220:B1 *82:20 0
8 *216:B1 *220:B1 8.65905e-05
9 *218:B1 *220:B1 0.000130326
*RES
1 *218:X *220:B1 13.455 
*END

*D_NET *56 0.000307463
*CONN
*I *220:B2 I *D sky130_fd_sc_hd__a2bb2o_1
*I *219:X O *D sky130_fd_sc_hd__o21a_1
*CAP
1 *220:B2 8.1034e-05
2 *219:X 8.1034e-05
3 *220:B2 *188:A0 5.83121e-06
4 *216:B1 *220:B2 8.96017e-05
5 *220:B1 *220:B2 4.99619e-05
*RES
1 *219:X *220:B2 5.03 
*END

*D_NET *57 0.00124216
*CONN
*I *222:B1 I *D sky130_fd_sc_hd__a21o_1
*I *228:A2 I *D sky130_fd_sc_hd__o211a_1
*I *221:X O *D sky130_fd_sc_hd__and2_1
*CAP
1 *222:B1 0.000110218
2 *228:A2 0
3 *221:X 9.77505e-05
4 *57:10 0.000207969
5 *222:B1 *224:A3 0.000134169
6 *222:B1 *82:40 9.50342e-06
7 *222:B1 *82:53 0.00031602
8 *57:10 *224:A3 0.000140912
9 *57:10 *224:B1 8.40213e-05
10 *57:10 *82:40 0.000141599
*RES
1 *221:X *57:10 6.03 
2 *57:10 *228:A2 3.6 
3 *57:10 *222:B1 6.975 
*END

*D_NET *58 0.000786977
*CONN
*I *224:A3 I *D sky130_fd_sc_hd__a31o_1
*I *222:X O *D sky130_fd_sc_hd__a21o_1
*CAP
1 *224:A3 0.000162674
2 *222:X 0.000162674
3 *224:A3 *82:40 2.42236e-05
4 *222:B1 *224:A3 0.000134169
5 *224:A2 *224:A3 0.000162325
6 *57:10 *224:A3 0.000140912
*RES
1 *222:X *224:A3 11.07 
*END

*D_NET *59 0.000936397
*CONN
*I *224:B1 I *D sky130_fd_sc_hd__a31o_1
*I *223:Y O *D sky130_fd_sc_hd__nor2_1
*CAP
1 *224:B1 0.000208587
2 *223:Y 0.000208587
3 *224:B1 *223:A 9.54469e-05
4 *224:B1 *223:B 5.21046e-05
5 *224:B1 *230:D 0.000104739
6 *224:B1 *250:A 4.66108e-05
7 *224:B1 *77:28 7.35729e-05
8 *224:B1 *77:34 6.2727e-05
9 *57:10 *224:B1 8.40213e-05
*RES
1 *223:Y *224:B1 11.895 
*END

*D_NET *60 0.000653722
*CONN
*I *226:A I *D sky130_fd_sc_hd__inv_2
*I *225:X O *D sky130_fd_sc_hd__mux2_1
*CAP
1 *226:A 0.000222926
2 *225:X 0.000222926
3 *226:A *198:S 0.000146254
4 *226:A *251:A 4.82863e-05
5 *225:A1 *226:A 1.33293e-05
*RES
1 *225:X *226:A 10.875 
*END

*D_NET *61 0.000520249
*CONN
*I *229:C I *D sky130_fd_sc_hd__or4_1
*I *227:Y O *D sky130_fd_sc_hd__a21oi_1
*CAP
1 *229:C 8.44389e-05
2 *227:Y 8.44389e-05
3 *229:C *229:D 3.25831e-05
4 *229:C *248:A 3.09233e-05
5 *229:C *71:8 0.000208484
6 result[3] *229:C 7.9381e-05
7 *235:A *229:C 0
*RES
1 *227:Y *229:C 9.855 
*END

*D_NET *62 0.00115101
*CONN
*I *229:D I *D sky130_fd_sc_hd__or4_1
*I *228:X O *D sky130_fd_sc_hd__o211a_1
*CAP
1 *229:D 0.000213014
2 *228:X 0.000213014
3 *229:D *228:C1 7.21296e-06
4 *229:D *248:A 7.07722e-05
5 *229:D *250:A 0.000387896
6 result[3] *229:D 0.000226513
7 *229:C *229:D 3.25831e-05
*RES
1 *228:X *229:D 12.645 
*END

*D_NET *63 0.00461643
*CONN
*I *230:D I *D sky130_fd_sc_hd__nor4_1
*I *229:X O *D sky130_fd_sc_hd__or4_1
*CAP
1 *230:D 0.00101061
2 *229:X 0.00101061
3 *230:D *189:A 0.000302042
4 *230:D *189:B 9.80736e-05
5 *230:D *189:C_N 4.89295e-05
6 *230:D *196:A 4.77719e-05
7 *230:D *196:B 0.000121181
8 *230:D *204:S 0
9 *230:D *211:C1 0.000161529
10 *230:D *212:A_N 4.82863e-05
11 *230:D *250:A 2.75229e-05
12 *230:D *69:6 3.72916e-05
13 *230:D *75:16 0.000120065
14 *230:D *77:28 0.000113237
15 *230:D *77:34 0.000269176
16 *191:B1 *230:D 4.82863e-05
17 *208:B1 *230:D 0.000196376
18 *208:C1 *230:D 4.82919e-05
19 *221:A *230:D 0.000597751
20 *224:B1 *230:D 0.000104739
21 *42:10 *230:D 8.40269e-05
22 *51:10 *230:D 0.000120645
*RES
1 *229:X *230:D 28.46 
*END

*D_NET *64 0.00120618
*CONN
*I *198:S I *D sky130_fd_sc_hd__mux2_1
*I *233:X O *D sky130_fd_sc_hd__clkbuf_1
*CAP
1 *198:S 0.000389866
2 *233:X 0.000389866
3 *225:A1 *198:S 2.75229e-05