*SPEF "ieee 1481-1999"
*DESIGN "top"
*DATE "05:57:23 Monday June 09, 2025"
*VENDOR "The OpenROAD Project"
*PROGRAM "OpenROAD"
*VERSION "v2.0-16235-gedf00dff9"
*DESIGN_FLOW "NAME_SCOPE LOCAL" "PIN_CAP NONE"
*DIVIDER /
*DELIMITER :
*BUS_DELIMITER []
*T_UNIT 1 NS
*C_UNIT 1 PF
*R_UNIT 1 OHM
*L_UNIT 1 HENRY

*NAME_MAP
*3 clk
*4 flag_gt_zero
*5 reset
*6 result[0]
*7 result[1]
*8 result[2]
*9 result[3]
*10 result[4]
*11 result[5]
*12 result[6]
*13 _00_
*14 _01_
*15 _02_
*16 _03_
*17 _04_
*18 _05_
*19 _06_
*20 _07_
*21 _08_
*22 clknet_0_clk
*23 clknet_1_0__leaf_clk
*24 clknet_1_1__leaf_clk
*25 fsm\.nstate\[0\]
*26 fsm\.nstate\[1\]
*27 fsm\.nstate\[2\]
*28 fsm\.pstate\[0\]
*29 fsm\.pstate\[1\]
*30 fsm\.pstate\[2\]
*31 net1
*32 net10
*33 net11
*34 net2
*35 net3
*36 net4
*37 net5
*38 net6
*39 net7
*40 net8
*41 net9
*42 FILLER_0_15
*43 FILLER_0_27
*44 FILLER_0_29
*45 FILLER_0_3
*46 FILLER_0_41
*47 FILLER_0_57
*48 FILLER_0_69
*49 FILLER_1_15
*50 FILLER_1_27
*51 FILLER_1_3
*52 FILLER_1_35
*53 FILLER_1_40
*54 FILLER_1_52
*55 FILLER_1_57
*56 FILLER_1_69
*57 FILLER_2_15
*58 FILLER_2_27
*59 FILLER_2_29
*60 FILLER_2_3
*61 FILLER_2_47
*62 FILLER_2_59
*63 FILLER_2_71
*64 FILLER_2_79
*65 FILLER_3_15
*66 FILLER_3_26
*67 FILLER_3_3
*68 FILLER_3_60
*69 FILLER_3_66
*70 FILLER_3_73
*71 FILLER_3_78
*72 FILLER_4_29
*73 FILLER_4_3
*74 FILLER_4_35
*75 FILLER_4_67
*76 FILLER_4_7
*77 FILLER_4_71
*78 FILLER_5_23
*79 FILLER_5_46
*80 FILLER_5_53
*81 FILLER_5_57
*82 FILLER_5_61
*83 FILLER_6_13
*84 FILLER_6_25
*85 FILLER_6_29
*86 FILLER_6_38
*87 FILLER_6_46
*88 FILLER_6_56
*89 FILLER_6_64
*90 FILLER_6_72
*91 FILLER_7_15
*92 FILLER_7_3
*93 FILLER_7_39
*94 FILLER_7_51
*95 FILLER_7_55
*96 FILLER_7_57
*97 FILLER_7_69
*98 FILLER_8_15
*99 FILLER_8_27
*100 FILLER_8_29
*101 FILLER_8_3
*102 FILLER_8_41
*103 FILLER_8_53
*104 FILLER_8_65
*105 FILLER_8_77
*106 FILLER_9_15
*107 FILLER_9_27
*108 FILLER_9_29
*109 FILLER_9_3
*110 FILLER_9_41
*111 FILLER_9_53
*112 FILLER_9_57
*113 FILLER_9_69
*114 PHY_EDGE_ROW_0_Left_10
*115 PHY_EDGE_ROW_0_Right_0
*116 PHY_EDGE_ROW_1_Left_11
*117 PHY_EDGE_ROW_1_Right_1
*118 PHY_EDGE_ROW_2_Left_12
*119 PHY_EDGE_ROW_2_Right_2
*120 PHY_EDGE_ROW_3_Left_13
*121 PHY_EDGE_ROW_3_Right_3
*122 PHY_EDGE_ROW_4_Left_14
*123 PHY_EDGE_ROW_4_Right_4
*124 PHY_EDGE_ROW_5_Left_15
*125 PHY_EDGE_ROW_5_Right_5
*126 PHY_EDGE_ROW_6_Left_16
*127 PHY_EDGE_ROW_6_Right_6
*128 PHY_EDGE_ROW_7_Left_17
*129 PHY_EDGE_ROW_7_Right_7
*130 PHY_EDGE_ROW_8_Left_18
*131 PHY_EDGE_ROW_8_Right_8
*132 PHY_EDGE_ROW_9_Left_19
*133 PHY_EDGE_ROW_9_Right_9
*134 TAP_TAPCELL_ROW_0_20
*135 TAP_TAPCELL_ROW_0_21
*136 TAP_TAPCELL_ROW_1_22
*137 TAP_TAPCELL_ROW_2_23
*138 TAP_TAPCELL_ROW_3_24
*139 TAP_TAPCELL_ROW_4_25
*140 TAP_TAPCELL_ROW_5_26
*141 TAP_TAPCELL_ROW_6_27
*142 TAP_TAPCELL_ROW_7_28
*143 TAP_TAPCELL_ROW_8_29
*144 TAP_TAPCELL_ROW_9_30
*145 TAP_TAPCELL_ROW_9_31
*146 _09_
*147 _10_
*148 _11_
*149 _12_
*150 _13_
*151 _14_
*152 _15_
*153 _16_
*154 _17_
*155 _18_
*156 _19_
*157 _20_
*158 _21_
*159 _22_
*160 _23_
*161 _24_
*162 _25_
*163 _26_
*164 _27_
*165 _28_
*166 _29_
*167 _30_
*168 _31_
*169 clkbuf_0_clk
*170 clkbuf_1_0__f_clk
*171 clkbuf_1_1__f_clk
*172 clkload0
*173 hold1
*174 hold2
*175 input1
*176 output2
*177 output3
*178 output4
*179 output5
*180 output6
*181 output7
*182 output8
*183 output9

*PORTS
clk I
flag_gt_zero O
reset I
result[0] O
result[1] O
result[2] O
result[3] O
result[4] O
result[5] O
result[6] O

*D_NET *3 0.00180586
*CONN
*P clk I
*I *169:A I *D sky130_fd_sc_hd__clkbuf_16
*CAP
1 clk 0.000789229
2 *169:A 0.000789229
3 *169:A *175:A 0.000227406
4 *169:A *31:10 0
*RES
1 clk *169:A 23.8295 
*END

*D_NET *4 0.000724175
*CONN
*P flag_gt_zero O
*I *176:X O *D sky130_fd_sc_hd__buf_2
*CAP
1 flag_gt_zero 9.15001e-05
2 *176:X 9.15001e-05
3 flag_gt_zero result[3] 0.000287976
4 flag_gt_zero result[5] 0.000253199
*RES
1 *176:X flag_gt_zero 18.1949 
*END

*D_NET *5 0.000899404
*CONN
*P reset I
*I *175:A I *D sky130_fd_sc_hd__dlymetal6s2s_1
*CAP
1 reset 0.000335999
2 *175:A 0.000335999
3 *175:A *163:CLK 0
4 *169:A *175:A 0.000227406
*RES
1 reset *175:A 21.1586 
*END

*D_NET *6 0.00059998
*CONN
*P result[0] O
*I *177:X O *D sky130_fd_sc_hd__buf_2
*CAP
1 result[0] 0.000174162
2 *177:X 0.000174162
3 result[0] result[3] 0.000251655
4 result[0] result[4] 0
5 result[0] *180:A 0
*RES
1 *177:X result[0] 18.1949 
*END

*D_NET *7 0.000606148
*CONN
*P result[1] O
*I *178:X O *D sky130_fd_sc_hd__buf_2
*CAP
1 result[1] 0.00016323
2 *178:X 0.00016323
3 result[1] result[5] 0.000267494
4 result[1] *178:A 1.21955e-05
*RES
1 *178:X result[1] 18.1949 
*END

*D_NET *8 0.000966956
*CONN
*P result[2] O
*I *179:X O *D sky130_fd_sc_hd__buf_2
*CAP
1 result[2] 0.000325845
2 *179:X 0.000325845
3 result[2] result[6] 0.000216223
4 result[2] *167:A 9.90431e-05
*RES
1 *179:X result[2] 21.6393 
*END

*D_NET *9 0.0012521
*CONN
*P result[3] O
*I *180:X O *D sky130_fd_sc_hd__buf_2
*CAP
1 result[3] 0.000270208
2 *180:X 0.000270208
3 result[3] result[5] 1.36077e-05
4 result[3] *168:A 6.043e-05
5 result[3] *176:A 4.27935e-05
6 result[3] *34:17 5.52238e-05
7 flag_gt_zero result[3] 0.000287976
8 result[0] result[3] 0.000251655
*RES
1 *180:X result[3] 20.8384 
*END

*D_NET *10 0.000632584
*CONN
*P result[4] O
*I *181:X O *D sky130_fd_sc_hd__buf_2
*CAP
1 result[4] 0.000295496
2 *181:X 0.000295496
3 result[4] *181:A 4.15914e-05
4 result[0] result[4] 0
*RES
1 *181:X result[4] 19.4092 
*END

*D_NET *11 0.00113205
*CONN
*P result[5] O
*I *182:X O *D sky130_fd_sc_hd__buf_2
*CAP
1 result[5] 0.000249493
2 *182:X 0.000249493
3 result[5] *178:A 3.92854e-05
4 result[5] *182:A 5.94788e-05
5 flag_gt_zero result[5] 0.000253199
6 result[1] result[5] 0.000267494
7 result[3] result[5] 1.36077e-05
*RES
1 *182:X result[5] 19.6975 
*END

*D_NET *12 0.000838526
*CONN
*P result[6] O
*I *183:X O *D sky130_fd_sc_hd__buf_2
*CAP
1 result[6] 0.000311152
2 *183:X 0.000311152
3 result[2] result[6] 0.000216223
*RES
1 *183:X result[6] 21.2286 
*END

*D_NET *13 0.000350904
*CONN
*I *163:RESET_B I *D sky130_fd_sc_hd__dfrtp_1
*I *160:Y O *D sky130_fd_sc_hd__inv_2
*CAP
1 *163:RESET_B 0.000127599
2 *160:Y 0.000127599
3 *163:RESET_B *161:A 4.46186e-06
4 *163:RESET_B *31:10 9.12446e-05
*RES
1 *160:Y *163:RESET_B 21.0857 
*END

*D_NET *14 0.00095023
*CONN
*I *164:RESET_B I *D sky130_fd_sc_hd__dfrtp_1
*I *161:Y O *D sky130_fd_sc_hd__inv_2
*CAP
1 *164:RESET_B 0.000327057
2 *161:Y 0.000327057
3 *164:RESET_B *151:A1 0.000120604
4 *164:RESET_B *163:D 0.000175512
*RES
1 *161:Y *164:RESET_B 23.55 
*END

*D_NET *15 0.000173996
*CONN
*I *165:RESET_B I *D sky130_fd_sc_hd__dfrtp_1
*I *162:Y O *D sky130_fd_sc_hd__inv_2
*CAP
1 *165:RESET_B 8.69981e-05
2 *162:Y 8.69981e-05
*RES
1 *162:Y *165:RESET_B 19.6393 
*END

*D_NET *16 0.00158135
*CONN
*I *152:A I *D sky130_fd_sc_hd__or2_1
*I *149:A I *D sky130_fd_sc_hd__or2_1
*I *159:A I *D sky130_fd_sc_hd__nor2_1
*I *146:Y O *D sky130_fd_sc_hd__inv_2
*CAP
1 *152:A 9.39186e-05
2 *149:A 0
3 *159:A 0
4 *146:Y 0.0002668
5 *16:19 0.000279706
6 *16:10 0.000452587
7 *152:A *150:A 5.71472e-05
8 *152:A *152:B 9.90431e-05
9 *152:A *177:A 2.89114e-05
10 *152:A *35:14 3.68799e-05
11 *16:10 *147:B 0
12 *16:10 *152:B 0
13 *16:10 *158:B 0
14 *16:19 *159:B 0.000188586
15 *16:19 *165:D 2.89114e-05
16 *16:19 *35:14 4.88637e-05
*RES
1 *146:Y *16:10 22.675 
2 *16:10 *159:A 9.3 
3 *16:10 *16:19 3.83929 
4 *16:19 *149:A 9.3 
5 *16:19 *152:A 11.4786 
*END

*D_NET *17 0.000157218
*CONN
*I *148:A I *D sky130_fd_sc_hd__buf_1
*I *147:Y O *D sky130_fd_sc_hd__nand2b_1
*CAP
1 *148:A 5.09969e-05
2 *147:Y 5.09969e-05
3 *148:A *30:29 5.52238e-05
*RES
1 *147:Y *148:A 19.5464 
*END

*D_NET *18 0.000344374
*CONN
*I *150:A I *D sky130_fd_sc_hd__clkbuf_1
*I *149:X O *D sky130_fd_sc_hd__or2_1
*CAP
1 *150:A 0.000143613
2 *149:X 0.000143613
3 *150:A *182:A 0
4 *152:A *150:A 5.71472e-05
*RES
1 *149:X *150:A 29.7786 
*END

*D_NET *19 0.00043654
*CONN
*I *153:A I *D sky130_fd_sc_hd__clkbuf_1
*I *152:X O *D sky130_fd_sc_hd__or2_1
*CAP
1 *153:A 0.000164275
2 *152:X 0.000164275
3 *153:A *152:B 0
4 *153:A *180:A 8.00806e-05
5 *153:A *35:10 2.79092e-05
*RES
1 *152:X *153:A 30.9036 
*END

*D_NET *20 0.000206288
*CONN
*I *155:A I *D sky130_fd_sc_hd__clkbuf_1
*I *154:X O *D sky130_fd_sc_hd__or2b_1
*CAP
1 *155:A 0.000103144
2 *154:X 0.000103144
3 *155:A *154:B_N 0
*RES
1 *154:X *155:A 20.3857 
*END

*D_NET *21 0.000937311
*CONN
*I *158:B I *D sky130_fd_sc_hd__nor2_1
*I *157:Y O *D sky130_fd_sc_hd__xnor2_1
*CAP
1 *158:B 0.000308377
2 *157:Y 0.000308377
3 *158:B *156:B 0.000174844
4 *158:B *28:22 0.000139907
5 *158:B *32:10 5.80706e-06
6 *16:10 *158:B 0
*RES
1 *157:Y *158:B 33.3321 
*END

*D_NET *22 0.00232554
*CONN
*I *170:A I *D sky130_fd_sc_hd__clkbuf_16
*I *171:A I *D sky130_fd_sc_hd__clkbuf_16
*I *169:X O *D sky130_fd_sc_hd__clkbuf_16
*CAP
1 *170:A 0.000232535
2 *171:A 0.00034312
3 *169:X 0.000277371
4 *22:10 0.000853026
5 *170:A *165:CLK 0.000100625
6 *170:A *165:D 7.77652e-05
7 *171:A *163:D 0.00031407
8 *171:A *172:A 0.000120975
9 *171:A *28:10 6.05161e-06
10 *171:A *31:10 0
11 *22:10 *31:10 0
*RES
1 *169:X *22:10 18.1036 
2 *22:10 *171:A 21.1929 
3 *22:10 *170:A 18.0321 
*END

*D_NET *23 0.001227
*CONN
*I *165:CLK I *D sky130_fd_sc_hd__dfrtp_1
*I *163:CLK I *D sky130_fd_sc_hd__dfrtp_1
*I *170:X O *D sky130_fd_sc_hd__clkbuf_16
*CAP
1 *165:CLK 0.000447271
2 *163:CLK 0.000115916
3 *170:X 0
4 *23:4 0.000563187
5 *170:A *165:CLK 0.000100625
6 *175:A *163:CLK 0
*RES
1 *170:X *23:4 9.3 
2 *23:4 *163:CLK 20.2464 
3 *23:4 *165:CLK 17.2464 
*END

*D_NET *24 0.00197795
*CONN
*I *164:CLK I *D sky130_fd_sc_hd__dfrtp_1
*I *172:A I *D sky130_fd_sc_hd__clkbuf_4
*I *171:X O *D sky130_fd_sc_hd__clkbuf_16
*CAP
1 *164:CLK 7.14122e-05
2 *172:A 0.000392084
3 *171:X 0.0002529
4 *24:6 0.000716396
5 *164:CLK *151:B1_N 6.42145e-05
6 *164:CLK *164:D 0.000123288
7 *172:A *30:23 5.03772e-05
8 *24:6 *30:23 0.0001863
9 *171:A *172:A 0.000120975
*RES
1 *171:X *24:6 12.7107 
2 *24:6 *172:A 14.3714 
3 *24:6 *164:CLK 19.9429 
*END

*D_NET *25 0.0026701
*CONN
*I *163:D I *D sky130_fd_sc_hd__dfrtp_1
*I *156:Y O *D sky130_fd_sc_hd__nor2_1
*CAP
1 *163:D 0.00100755
2 *156:Y 0.00100755
3 *163:D *151:A2 0
4 *163:D *151:B1_N 0
5 *163:D *156:A 8.00806e-05
6 *163:D *28:10 8.53294e-05
7 *164:RESET_B *163:D 0.000175512
8 *171:A *163:D 0.00031407
*RES
1 *156:Y *163:D 46.6893 
*END

*D_NET *26 0.00137279
*CONN
*I *164:D I *D sky130_fd_sc_hd__dfrtp_1
*I *158:Y O *D sky130_fd_sc_hd__nor2_1
*CAP
1 *164:D 0.000293585
2 *158:Y 0.000293585
3 *164:D *151:B1_N 2.47186e-05
4 *164:D *156:B 0.000335922
5 *164:D *165:D 7.02611e-05
6 *164:D *173:A 2.8266e-06
7 *164:D *28:22 7.49357e-05
8 *164:D *29:21 0.000100126
9 *164:D *30:10 5.35423e-05
10 *164:CLK *164:D 0.000123288
*RES
1 *158:Y *164:D 35.1 
*END

*D_NET *27 0.00167031
*CONN
*I *165:D I *D sky130_fd_sc_hd__dfrtp_1
*I *159:Y O *D sky130_fd_sc_hd__nor2_1
*CAP
1 *165:D 0.000732484
2 *159:Y 0.000732484
3 *165:D *30:8 2.84026e-05
4 *164:D *165:D 7.02611e-05
5 *170:A *165:D 7.77652e-05
6 *16:19 *165:D 2.89114e-05
*RES
1 *159:Y *165:D 31.0464 
*END

*D_NET *28 0.00449896
*CONN
*I *151:A1 I *D sky130_fd_sc_hd__o21bai_1
*I *174:A I *D sky130_fd_sc_hd__dlygate4sd3_1
*I *154:B_N I *D sky130_fd_sc_hd__or2b_1
*I *147:B I *D sky130_fd_sc_hd__nand2b_1
*I *157:A I *D sky130_fd_sc_hd__xnor2_1
*I *163:Q O *D sky130_fd_sc_hd__dfrtp_1
*CAP
1 *151:A1 0.000188022
2 *174:A 0
3 *154:B_N 0.000138335
4 *147:B 0.000142607
5 *157:A 1.91209e-05
6 *163:Q 0.00021559
7 *28:61 0.00040723
8 *28:31 0.00052423
9 *28:22 0.00100802
10 *28:10 0.00118041
11 *147:B *154:A 0
12 *147:B *30:29 1.28809e-05
13 *151:A1 *156:A 1.83136e-05
14 *154:B_N *154:A 2.51343e-06
15 *157:A *146:A 0
16 *28:10 *31:10 0
17 *28:22 *146:A 3.18676e-05
18 *28:22 *29:6 4.67955e-05
19 *28:22 *29:21 3.84615e-05
20 *28:22 *31:10 0
21 *28:31 *146:A 9.77274e-05
22 *28:61 *161:A 0
23 *28:61 *31:10 0
24 *155:A *154:B_N 0
25 *158:B *28:22 0.000139907
26 *163:D *28:10 8.53294e-05
27 *164:D *28:22 7.49357e-05
28 *164:RESET_B *151:A1 0.000120604
29 *171:A *28:10 6.05161e-06
30 *16:10 *147:B 0
*RES
1 *163:Q *28:10 16.8625 
2 *28:10 *28:22 15.0268 
3 *28:22 *157:A 9.72857 
4 *28:22 *28:31 4.23214 
5 *28:31 *147:B 20.3759 
6 *28:31 *154:B_N 11.4964 
7 *28:10 *28:61 8.47321 
8 *28:61 *174:A 9.3 
9 *28:61 *151:A1 13.1393 
*END

*D_NET *29 0.00247768
*CONN
*I *146:A I *D sky130_fd_sc_hd__inv_2
*I *157:B I *D sky130_fd_sc_hd__xnor2_1
*I *151:A2 I *D sky130_fd_sc_hd__o21bai_1
*I *164:Q O *D sky130_fd_sc_hd__dfrtp_1
*CAP
1 *146:A 0.000102242
2 *157:B 0
3 *151:A2 0.000118492
4 *164:Q 0.000523043
5 *29:21 0.000429
6 *29:6 0.000968293
7 *151:A2 *151:B1_N 2.16315e-05
8 *157:A *146:A 0
9 *163:D *151:A2 0
10 *164:D *29:21 0.000100126
11 *28:22 *146:A 3.18676e-05
12 *28:22 *29:6 4.67955e-05
13 *28:22 *29:21 3.84615e-05
14 *28:31 *146:A 9.77274e-05
*RES
1 *164:Q *29:6 15.175 
2 *29:6 *151:A2 20.2464 
3 *29:6 *29:21 4.55357 
4 *29:21 *157:B 9.3 
5 *29:21 *146:A 11.9071 
*END

*D_NET *30 0.00409712
*CONN
*I *173:A I *D sky130_fd_sc_hd__dlygate4sd3_1
*I *147:A_N I *D sky130_fd_sc_hd__nand2b_1
*I *152:B I *D sky130_fd_sc_hd__or2_1
*I *154:A I *D sky130_fd_sc_hd__or2b_1
*I *151:B1_N I *D sky130_fd_sc_hd__o21bai_1
*I *165:Q O *D sky130_fd_sc_hd__dfrtp_1
*CAP
1 *173:A 0.00036846
2 *147:A_N 0
3 *152:B 0.000178744
4 *154:A 0.000234502
5 *151:B1_N 0.000208445
6 *165:Q 4.22068e-05
7 *30:29 0.000573263
8 *30:23 0.000510601
9 *30:10 0.0006501
10 *30:8 0.000501736
11 *151:B1_N *156:B 0
12 *152:B *35:10 4.57445e-05
13 *152:B *35:14 9.90431e-05
14 *154:A *181:A 0
15 *173:A *156:B 0
16 *173:A *32:10 8.26015e-05
17 *147:B *154:A 0
18 *147:B *30:29 1.28809e-05
19 *148:A *30:29 5.52238e-05
20 *151:A2 *151:B1_N 2.16315e-05
21 *152:A *152:B 9.90431e-05
22 *153:A *152:B 0
23 *154:B_N *154:A 2.51343e-06
24 *163:D *151:B1_N 0
25 *164:CLK *151:B1_N 6.42145e-05
26 *164:D *151:B1_N 2.47186e-05
27 *164:D *173:A 2.8266e-06
28 *164:D *30:10 5.35423e-05
29 *165:D *30:8 2.84026e-05
30 *172:A *30:23 5.03772e-05
31 *16:10 *152:B 0
32 *24:6 *30:23 0.0001863
*RES
1 *165:Q *30:8 14.3357 
2 *30:8 *30:10 1.94643 
3 *30:10 *151:B1_N 17.8714 
4 *30:10 *30:23 11.1964 
5 *30:23 *30:29 7.10714 
6 *30:29 *154:A 17.1929 
7 *30:29 *152:B 17.9071 
8 *30:23 *147:A_N 9.3 
9 *30:8 *173:A 20.6214 
*END

*D_NET *31 0.00291588
*CONN
*I *162:A I *D sky130_fd_sc_hd__inv_2
*I *160:A I *D sky130_fd_sc_hd__inv_2
*I *161:A I *D sky130_fd_sc_hd__inv_2
*I *175:X O *D sky130_fd_sc_hd__dlymetal6s2s_1
*CAP
1 *162:A 0.000260555
2 *160:A 0
3 *161:A 0.000289347
4 *175:X 0.000485488
5 *31:10 0.000664042
6 *31:6 0.00112074
7 *163:RESET_B *161:A 4.46186e-06
8 *163:RESET_B *31:10 9.12446e-05
9 *169:A *31:10 0
10 *171:A *31:10 0
11 *22:10 *31:10 0
12 *28:10 *31:10 0
13 *28:22 *31:10 0
14 *28:61 *161:A 0
15 *28:61 *31:10 0
*RES
1 *175:X *31:6 17.2286 
2 *31:6 *31:10 11.6071 
3 *31:10 *161:A 18.8357 
4 *31:10 *160:A 13.8 
5 *31:6 *162:A 13.5321 
*END

*D_NET *32 0.00261814
*CONN
*I *158:A I *D sky130_fd_sc_hd__nor2_1
*I *156:B I *D sky130_fd_sc_hd__nor2_1
*I *173:X O *D sky130_fd_sc_hd__dlygate4sd3_1
*CAP
1 *158:A 0
2 *156:B 0.000828459
3 *173:X 0.000155483
4 *32:10 0.000983942
5 *156:B *41:12 5.10822e-05
6 *151:B1_N *156:B 0
7 *158:B *156:B 0.000174844
8 *158:B *32:10 5.80706e-06
9 *164:D *156:B 0.000335922
10 *173:A *156:B 0
11 *173:A *32:10 8.26015e-05
*RES
1 *173:X *32:10 16.3893 
2 *32:10 *156:B 29.2286 
3 *32:10 *158:A 13.8 
*END

*D_NET *33 0.000372963
*CONN
*I *156:A I *D sky130_fd_sc_hd__nor2_1
*I *174:X O *D sky130_fd_sc_hd__dlygate4sd3_1
*CAP
1 *156:A 0.000137285
2 *174:X 0.000137285
3 *156:A *41:12 0
4 *151:A1 *156:A 1.83136e-05
5 *163:D *156:A 8.00806e-05
*RES
1 *174:X *156:A 29.7786 
*END

*D_NET *34 0.00126132
*CONN
*I *176:A I *D sky130_fd_sc_hd__buf_2
*I *168:A I *D sky130_fd_sc_hd__clkbuf_1
*I *166:A I *D sky130_fd_sc_hd__clkbuf_1
*I *150:X O *D sky130_fd_sc_hd__clkbuf_1
*CAP
1 *176:A 3.37933e-05
2 *168:A 7.3023e-05
3 *166:A 0.000222818
4 *150:X 0
5 *34:17 0.000225899
6 *34:4 0.0003419
7 *166:A *178:A 1.34703e-05
8 *168:A *180:A 7.8327e-05
9 *176:A *178:A 1.40415e-05
10 *34:17 *178:A 4.62969e-05
11 *34:17 *180:A 5.33005e-05
12 result[3] *168:A 6.043e-05
13 result[3] *176:A 4.27935e-05
14 result[3] *34:17 5.52238e-05
*RES
1 *150:X *34:4 9.3 
2 *34:4 *166:A 12.2107 
3 *34:4 *34:17 2.60714 
4 *34:17 *168:A 20.2464 
5 *34:17 *176:A 10.2643 
*END

*D_NET *35 0.00140432
*CONN
*I *177:A I *D sky130_fd_sc_hd__buf_2
*I *149:B I *D sky130_fd_sc_hd__or2_1
*I *159:B I *D sky130_fd_sc_hd__nor2_1
*I *148:X O *D sky130_fd_sc_hd__buf_1
*CAP
1 *177:A 0.000195587
2 *149:B 0
3 *159:B 5.63669e-05
4 *148:X 6.47395e-05
5 *35:14 0.000194226
6 *35:10 0.000398186
7 *177:A *182:A 1.92789e-05
8 *35:10 *180:A 0
9 *152:A *177:A 2.89114e-05
10 *152:A *35:14 3.68799e-05
11 *152:B *35:10 4.57445e-05
12 *152:B *35:14 9.90431e-05
13 *153:A *35:10 2.79092e-05
14 *16:19 *159:B 0.000188586
15 *16:19 *35:14 4.88637e-05
*RES
1 *148:X *35:10 19.9429 
2 *35:10 *35:14 3.01786 
3 *35:14 *159:B 11.0679 
4 *35:14 *149:B 9.3 
5 *35:10 *177:A 12.7286 
*END

*D_NET *36 0.000963876
*CONN
*I *178:A I *D sky130_fd_sc_hd__buf_2
*I *166:X O *D sky130_fd_sc_hd__clkbuf_1
*CAP
1 *178:A 0.000411385
2 *166:X 0.000411385
3 *178:A *180:A 1.58163e-05
4 *178:A *182:A 0
5 result[1] *178:A 1.21955e-05
6 result[5] *178:A 3.92854e-05
7 *166:A *178:A 1.34703e-05
8 *176:A *178:A 1.40415e-05
9 *34:17 *178:A 4.62969e-05
*RES
1 *166:X *178:A 33.3679 
*END

*D_NET *37 0.000171596
*CONN
*I *179:A I *D sky130_fd_sc_hd__buf_2
*I *167:X O *D sky130_fd_sc_hd__clkbuf_1
*CAP
1 *179:A 5.43415e-05
2 *167:X 5.43415e-05
3 *179:A *167:A 6.29133e-05
*RES
1 *167:X *179:A 19.8679 
*END

*D_NET *38 0.000751914
*CONN
*I *180:A I *D sky130_fd_sc_hd__buf_2
*I *153:X O *D sky130_fd_sc_hd__clkbuf_1
*CAP
1 *180:A 0.00020019
2 *153:X 0.00020019
3 *180:A *182:A 0.00012401
4 result[0] *180:A 0
5 *153:A *180:A 8.00806e-05
6 *168:A *180:A 7.8327e-05
7 *178:A *180:A 1.58163e-05
8 *34:17 *180:A 5.33005e-05
9 *35:10 *180:A 0
*RES
1 *153:X *180:A 32.2071 
*END

*D_NET *39 0.000217537
*CONN
*I *181:A I *D sky130_fd_sc_hd__buf_2
*I *155:X O *D sky130_fd_sc_hd__clkbuf_1
*CAP
1 *181:A 8.79728e-05
2 *155:X 8.79728e-05
3 result[4] *181:A 4.15914e-05
4 *154:A *181:A 0
*RES
1 *155:X *181:A 29.2429 
*END

*D_NET *40 0.000717565
*CONN
*I *182:A I *D sky130_fd_sc_hd__buf_2
*I *168:X O *D sky130_fd_sc_hd__clkbuf_1
*CAP
1 *182:A 0.000257399
2 *168:X 0.000257399
3 result[5] *182:A 5.94788e-05
4 *150:A *182:A 0
5 *177:A *182:A 1.92789e-05
6 *178:A *182:A 0
7 *180:A *182:A 0.00012401
*RES
1 *168:X *182:A 32.5107 
*END

*D_NET *41 0.00138071
*CONN
*I *183:A I *D sky130_fd_sc_hd__buf_2
*I *167:A I *D sky130_fd_sc_hd__clkbuf_1
*I *151:Y O *D sky130_fd_sc_hd__o21bai_1
*CAP
1 *183:A 0
2 *167:A 0.000190149
3 *151:Y 0.000393684
4 *41:12 0.000583833
5 result[2] *167:A 9.90431e-05
6 *156:A *41:12 0
7 *156:B *41:12 5.10822e-05
8 *179:A *167:A 6.29133e-05
*RES
1 *151:Y *41:12 24.4429 
2 *41:12 *167:A 13.1571 
3 *41:12 *183:A 9.3 
*END
